/*---------------------------------------------------------------------------*\
| =========                 |                                                 |
| \\      /  F ield         | foam-extend: Open Source CFD                    |
|  \\    /   O peration     | Version:     3.1                                |
|   \\  /    A nd           | Web:         http://www.extend-project.de       |
|    \\/     M anipulation  |                                                 |
\*---------------------------------------------------------------------------*/
Build    : 3.1-7d8e040bf53d
Exec     : fsiFoam
Date     : May 12 2017
Time     : 17:19:32
Host     : node01-el7
PID      : 18198
CtrlDict : /home/rdu/foam/foam-extend-3.1/etc/controlDict
Case     : /home/rdu/foam/rdu-3.1/FluidStructureInteraction/run/fsiFoam/3dTube/fluid
nProcs   : 1
SigFpe   : Enabling floating point exception trapping (FOAM_SIGFPE).

// * * * * * * * * * * * * * * * * * * * * * * * * * * * * * * * * * * * * * //
Create time

Create dynamic mesh for time = 0

Selecting dynamicFvMesh dynamicMotionSolverFvMesh
Selecting motion solver: velocityLaplacian
Selecting motion diffusion: quadratic
Selecting motion diffusion: inverseDistance
 Reading stress mesh
Creating traction displacement boundary conditions
Creating traction displacement boundary conditions
Selecting rheology model linearElastic
Creating constitutive model
Selecting coupling scheme IQN-ILS

Starting time loop

Creating pointHistory function object.
History point ID: 4300
History point coordinates: (0 0.005 0.025)
Reference point coordinates: (0 0.005 0.025)
Time = 0.0001

Create extended GGI zone-to-zone interpolator
Checking fluid-to-solid face interpolator
Fluid-to-solid face interpolation error: 9.94108e-07
Checking solid-to-fluid point interpolator (GGI)
Extended GGI, master point distance, max: 1.01404e-06, avg: 6.34898e-07, min: 0
Extended GGI, master point orientation (<0), max: -0.999196, min: -1, nIncorrectPoints: 0/1701
Solid-to-fluid point interpolation error (GGI): 1.01404e-06
Number of uncovered master faces: 0
Number of uncovered slave faces: 0

Time = 0.0001, iteration: 1
Modes before clean-up : 0, modes after clean-up : 0
Current fsi under-relaxation factor: 0.05
Creating accumulated fluid interface displacement
Maximal accumulated displacement of interface points: 0
GAMG:  Solving for cellMotionUx, Initial residual = 0, Final residual = 0, No Iterations 1
GAMG:  Solving for cellMotionUy, Initial residual = 0, Final residual = 0, No Iterations 1
GAMG:  Solving for cellMotionUz, Initial residual = 0, Final residual = 0, No Iterations 1
GAMG:  Solving for cellMotionUx, Initial residual = 0, Final residual = 0, No Iterations 1
GAMG:  Solving for cellMotionUy, Initial residual = 0, Final residual = 0, No Iterations 1
GAMG:  Solving for cellMotionUz, Initial residual = 0, Final residual = 0, No Iterations 1
Evolving flow model: consistentIcoFlow
Courant Number mean: 0 max: 0 velocity magnitude: 0
DILUPBiCG:  Solving for Ux, Initial residual = 0.845342, Final residual = 2.7389e-10, No Iterations 2
DILUPBiCG:  Solving for Uy, Initial residual = 0.83879, Final residual = 2.7043e-10, No Iterations 2
DILUPBiCG:  Solving for Uz, Initial residual = 1, Final residual = 1.93018e-10, No Iterations 2
Consistent backwardDdtPhiCorr
GAMG:  Solving for p, Initial residual = 1, Final residual = 7.26385e-07, No Iterations 14
GAMG:  Solving for p, Initial residual = 4.98695e-05, Final residual = 2.83083e-07, No Iterations 3
time step continuity errors : sum local = 4.79456e-10, global = -5.52183e-11
Consistent backwardDdtPhiCorr
GAMG:  Solving for p, Initial residual = 0.00298385, Final residual = 5.4319e-07, No Iterations 10
GAMG:  Solving for p, Initial residual = 4.89935e-05, Final residual = 3.30638e-07, No Iterations 3
time step continuity errors : sum local = 5.56692e-10, global = 4.80991e-11
Consistent backwardDdtPhiCorr
GAMG:  Solving for p, Initial residual = 1.80191e-05, Final residual = 4.4329e-07, No Iterations 2
GAMG:  Solving for p, Initial residual = 1.3305e-06, Final residual = 2.19042e-07, No Iterations 1
time step continuity errors : sum local = 3.68777e-10, global = -3.35688e-11
Setting traction on solid patch
Total force (fluid) = (-0.166649 -0.166649 -2.17215e-05)
Total force (solid) = (0.166672 0.166672 2.17244e-05)
Evolving stress model
DICPCG: Solving for D, Initial residula = 1, Final residual = 0.0014551, No outer iterations = 17
Max relative residual = 1, Relative residual = 0.000869307, enforceLinear = 0
Current fsi relative residual norm: 1

Time = 0.0001, iteration: 2
Current fsi under-relaxation factor: 0.05
Maximal accumulated displacement of interface points: 0.00495779
GAMG:  Solving for cellMotionUx, Initial residual = 1, Final residual = 3.99173e-05, No Iterations 2
GAMG:  Solving for cellMotionUy, Initial residual = 1, Final residual = 0.000789057, No Iterations 1
GAMG:  Solving for cellMotionUz, Initial residual = 1, Final residual = 0.000845327, No Iterations 1
GAMG:  Solving for cellMotionUx, Initial residual = 3.12682e-05, Final residual = 6.96727e-07, No Iterations 2
GAMG:  Solving for cellMotionUy, Initial residual = 0.000617695, Final residual = 2.7922e-07, No Iterations 4
GAMG:  Solving for cellMotionUz, Initial residual = 0.000518678, Final residual = 5.90405e-07, No Iterations 4
Evolving flow model: consistentIcoFlow
Courant Number mean: 0.000440416 max: 0.00494274 velocity magnitude: 0.00526398
DILUPBiCG:  Solving for Ux, Initial residual = 0.922332, Final residual = 2.82953e-10, No Iterations 2
DILUPBiCG:  Solving for Uy, Initial residual = 0.92233, Final residual = 2.81859e-10, No Iterations 2
DILUPBiCG:  Solving for Uz, Initial residual = 0.0665709, Final residual = 2.23498e-11, No Iterations 2
Consistent backwardDdtPhiCorr
GAMG:  Solving for p, Initial residual = 0.0602379, Final residual = 8.75108e-07, No Iterations 12
GAMG:  Solving for p, Initial residual = 0.00411719, Final residual = 6.86034e-07, No Iterations 7
time step continuity errors : sum local = 4.22679e-09, global = -1.87526e-09
Consistent backwardDdtPhiCorr
GAMG:  Solving for p, Initial residual = 0.000853909, Final residual = 7.70584e-07, No Iterations 8
GAMG:  Solving for p, Initial residual = 0.000115674, Final residual = 4.01948e-07, No Iterations 4
time step continuity errors : sum local = 2.45267e-09, global = -4.42527e-10
Consistent backwardDdtPhiCorr
GAMG:  Solving for p, Initial residual = 4.72918e-05, Final residual = 2.9868e-07, No Iterations 3
GAMG:  Solving for p, Initial residual = 2.1665e-05, Final residual = 4.65644e-07, No Iterations 3
time step continuity errors : sum local = 2.84123e-09, global = -1.71454e-10
Setting traction on solid patch
Total force (fluid) = (0.420046 0.420047 -9.91493e-06)
Total force (solid) = (-0.42008 -0.42008 9.91229e-06)
Evolving stress model
DICPCG: Solving for D, Initial residula = 0.363819, Final residual = 0.011803, No outer iterations = 9
Max relative residual = 1.28098, Relative residual = 0.00114617, enforceLinear = 0
Current fsi relative residual norm: 1

Time = 0.0001, iteration: 3
Current fsi under-relaxation factor: 0.05
Maximal accumulated displacement of interface points: 0.0113469
GAMG:  Solving for cellMotionUx, Initial residual = 0.884372, Final residual = 3.74703e-05, No Iterations 2
GAMG:  Solving for cellMotionUy, Initial residual = 0.88439, Final residual = 0.000707663, No Iterations 1
GAMG:  Solving for cellMotionUz, Initial residual = 0.851302, Final residual = 0.000416152, No Iterations 1
GAMG:  Solving for cellMotionUx, Initial residual = 4.26887e-05, Final residual = 6.80382e-07, No Iterations 2
GAMG:  Solving for cellMotionUy, Initial residual = 0.000804513, Final residual = 2.95421e-07, No Iterations 4
GAMG:  Solving for cellMotionUz, Initial residual = 0.000268773, Final residual = 6.5239e-07, No Iterations 3
Evolving flow model: consistentIcoFlow
Courant Number mean: 0.00137407 max: 0.0131271 velocity magnitude: 0.0410323
DILUPBiCG:  Solving for Ux, Initial residual = 0.00176583, Final residual = 1.99872e-08, No Iterations 1
DILUPBiCG:  Solving for Uy, Initial residual = 0.00176563, Final residual = 1.99335e-08, No Iterations 1
DILUPBiCG:  Solving for Uz, Initial residual = 0.00021835, Final residual = 4.47683e-09, No Iterations 1
Consistent backwardDdtPhiCorr
GAMG:  Solving for p, Initial residual = 0.047476, Final residual = 9.00315e-07, No Iterations 12
GAMG:  Solving for p, Initial residual = 0.00502575, Final residual = 4.68311e-07, No Iterations 7
time step continuity errors : sum local = 6.60177e-09, global = -1.24822e-10
Consistent backwardDdtPhiCorr
GAMG:  Solving for p, Initial residual = 0.00110763, Final residual = 8.16145e-07, No Iterations 10
GAMG:  Solving for p, Initial residual = 0.000143003, Final residual = 4.29814e-07, No Iterations 4
time step continuity errors : sum local = 5.95467e-09, global = 1.48662e-09
Consistent backwardDdtPhiCorr
GAMG:  Solving for p, Initial residual = 4.72547e-05, Final residual = 9.81005e-07, No Iterations 2
GAMG:  Solving for p, Initial residual = 2.53311e-05, Final residual = 4.10085e-07, No Iterations 3
time step continuity errors : sum local = 5.68115e-09, global = 1.39069e-09
Setting traction on solid patch
Total force (fluid) = (-1.49466 -1.49466 -4.3751e-05)
Total force (solid) = (1.49504 1.49504 4.37672e-05)
Evolving stress model
DICPCG: Solving for D, Initial residula = 0.4149, Final residual = 0.0308653, No outer iterations = 7
Max relative residual = 1.33409, Relative residual = 0.00132924, enforceLinear = 0
Current fsi relative residual norm: 1

Time = 0.0001, iteration: 4
Maximal accumulated displacement of interface points: 0.0571052
GAMG:  Solving for cellMotionUx, Initial residual = 0.802817, Final residual = 4.04267e-05, No Iterations 2
GAMG:  Solving for cellMotionUy, Initial residual = 0.80288, Final residual = 0.000682044, No Iterations 1
GAMG:  Solving for cellMotionUz, Initial residual = 0.796133, Final residual = 0.000682374, No Iterations 1
GAMG:  Solving for cellMotionUx, Initial residual = 3.82167e-05, Final residual = 2.89582e-07, No Iterations 3
GAMG:  Solving for cellMotionUy, Initial residual = 0.000644069, Final residual = 4.17474e-07, No Iterations 4
GAMG:  Solving for cellMotionUz, Initial residual = 0.000395505, Final residual = 4.06454e-07, No Iterations 4
Evolving flow model: consistentIcoFlow
Courant Number mean: 0.00268513 max: 0.0557302 velocity magnitude: 0.0595541
DILUPBiCG:  Solving for Ux, Initial residual = 0.00446373, Final residual = 1.12011e-07, No Iterations 1
DILUPBiCG:  Solving for Uy, Initial residual = 0.00446252, Final residual = 1.12377e-07, No Iterations 1
DILUPBiCG:  Solving for Uz, Initial residual = 0.000536622, Final residual = 1.42768e-08, No Iterations 1
Consistent backwardDdtPhiCorr
GAMG:  Solving for p, Initial residual = 0.0369415, Final residual = 5.35423e-07, No Iterations 13
GAMG:  Solving for p, Initial residual = 0.0305776, Final residual = 4.36248e-07, No Iterations 10
time step continuity errors : sum local = 1.62205e-09, global = 5.06734e-10
Consistent backwardDdtPhiCorr
GAMG:  Solving for p, Initial residual = 0.00636756, Final residual = 6.83646e-07, No Iterations 10
GAMG:  Solving for p, Initial residual = 0.000868999, Final residual = 6.96173e-07, No Iterations 5
time step continuity errors : sum local = 2.46682e-09, global = -4.40398e-10
Consistent backwardDdtPhiCorr
GAMG:  Solving for p, Initial residual = 0.000458454, Final residual = 3.76345e-07, No Iterations 5
GAMG:  Solving for p, Initial residual = 0.000173057, Final residual = 7.94196e-07, No Iterations 4
time step continuity errors : sum local = 2.81283e-09, global = -5.15952e-10
Setting traction on solid patch
Total force (fluid) = (0.0897359 0.0897405 4.97593e-05)
Total force (solid) = (-0.0896835 -0.0896881 -4.9686e-05)
Evolving stress model
DICPCG: Solving for D, Initial residula = 0.140518, Final residual = 0.0133193, No outer iterations = 10
Max relative residual = 3.53154, Relative residual = 0.00295415, enforceLinear = 0
Current fsi relative residual norm: 0.254019

Time = 0.0001, iteration: 5
Maximal accumulated displacement of interface points: 0.0233317
GAMG:  Solving for cellMotionUx, Initial residual = 0.866032, Final residual = 4.34198e-05, No Iterations 2
GAMG:  Solving for cellMotionUy, Initial residual = 0.865626, Final residual = 0.000738063, No Iterations 1
GAMG:  Solving for cellMotionUz, Initial residual = 0.915284, Final residual = 0.000810047, No Iterations 1
GAMG:  Solving for cellMotionUx, Initial residual = 5.2306e-05, Final residual = 4.18623e-07, No Iterations 3
GAMG:  Solving for cellMotionUy, Initial residual = 0.00088911, Final residual = 6.08936e-07, No Iterations 4
GAMG:  Solving for cellMotionUz, Initial residual = 0.000955022, Final residual = 8.45071e-07, No Iterations 4
Evolving flow model: consistentIcoFlow
Courant Number mean: 0.00186169 max: 0.0429675 velocity magnitude: 0.134561
DILUPBiCG:  Solving for Ux, Initial residual = 0.00166543, Final residual = 5.11298e-08, No Iterations 1
DILUPBiCG:  Solving for Uy, Initial residual = 0.00166462, Final residual = 5.10872e-08, No Iterations 1
DILUPBiCG:  Solving for Uz, Initial residual = 0.000962938, Final residual = 3.63464e-08, No Iterations 1
Consistent backwardDdtPhiCorr
GAMG:  Solving for p, Initial residual = 0.13572, Final residual = 7.37411e-07, No Iterations 13
GAMG:  Solving for p, Initial residual = 0.0439248, Final residual = 5.17353e-07, No Iterations 10
time step continuity errors : sum local = 1.21937e-09, global = -4.59745e-10
Consistent backwardDdtPhiCorr
GAMG:  Solving for p, Initial residual = 0.00946774, Final residual = 3.41269e-07, No Iterations 10
GAMG:  Solving for p, Initial residual = 0.00118271, Final residual = 3.58378e-07, No Iterations 6
time step continuity errors : sum local = 8.2504e-10, global = 2.0429e-11
Consistent backwardDdtPhiCorr
GAMG:  Solving for p, Initial residual = 0.000422604, Final residual = 2.1744e-07, No Iterations 5
GAMG:  Solving for p, Initial residual = 0.000213155, Final residual = 9.8154e-07, No Iterations 4
time step continuity errors : sum local = 2.25901e-09, global = 3.11719e-10
Setting traction on solid patch
Total force (fluid) = (-0.0370497 -0.0370458 1.08942e-05)
Total force (solid) = (0.0370578 0.0370539 -1.08452e-05)
Evolving stress model
DICPCG: Solving for D, Initial residula = 0.343106, Final residual = 0.0340102, No outer iterations = 9
Max relative residual = 4.56784, Relative residual = 0.00456544, enforceLinear = 0
Current fsi relative residual norm: 0.0884316

Time = 0.0001, iteration: 6
Maximal accumulated displacement of interface points: 0.0123288
GAMG:  Solving for cellMotionUx, Initial residual = 0.781013, Final residual = 4.67029e-05, No Iterations 2
GAMG:  Solving for cellMotionUy, Initial residual = 0.780847, Final residual = 0.000688187, No Iterations 1
GAMG:  Solving for cellMotionUz, Initial residual = 0.658336, Final residual = 0.000644203, No Iterations 1
GAMG:  Solving for cellMotionUx, Initial residual = 6.87853e-05, Final residual = 3.35361e-07, No Iterations 3
GAMG:  Solving for cellMotionUy, Initial residual = 0.00101323, Final residual = 6.04022e-07, No Iterations 4
GAMG:  Solving for cellMotionUz, Initial residual = 0.000782312, Final residual = 3.73e-07, No Iterations 4
Evolving flow model: consistentIcoFlow
Courant Number mean: 0.000891679 max: 0.0304864 velocity magnitude: 0.0954445
DILUPBiCG:  Solving for Ux, Initial residual = 0.000972783, Final residual = 1.85998e-08, No Iterations 1
DILUPBiCG:  Solving for Uy, Initial residual = 0.000972315, Final residual = 1.85542e-08, No Iterations 1
DILUPBiCG:  Solving for Uz, Initial residual = 0.000541122, Final residual = 1.20872e-08, No Iterations 1
Consistent backwardDdtPhiCorr
GAMG:  Solving for p, Initial residual = 0.108233, Final residual = 8.89159e-07, No Iterations 14
GAMG:  Solving for p, Initial residual = 0.0250102, Final residual = 8.01904e-07, No Iterations 8
time step continuity errors : sum local = 1.64992e-09, global = 8.31966e-10
Consistent backwardDdtPhiCorr
GAMG:  Solving for p, Initial residual = 0.00514768, Final residual = 6.73157e-07, No Iterations 11
GAMG:  Solving for p, Initial residual = 0.000667165, Final residual = 5.09748e-07, No Iterations 5
time step continuity errors : sum local = 1.03485e-09, global = 4.17569e-11
Consistent backwardDdtPhiCorr
GAMG:  Solving for p, Initial residual = 0.000268056, Final residual = 7.27888e-07, No Iterations 4
GAMG:  Solving for p, Initial residual = 0.000130497, Final residual = 5.42334e-07, No Iterations 4
time step continuity errors : sum local = 1.10083e-09, global = 9.54418e-11
Setting traction on solid patch
Total force (fluid) = (-0.00151291 -0.00151135 3.09125e-06)
Total force (solid) = (0.00150809 0.00150653 -3.05538e-06)
Evolving stress model
DICPCG: Solving for D, Initial residula = 0.323041, Final residual = 0.0122352, No outer iterations = 12
Max relative residual = 2.55137, Relative residual = 0.002533, enforceLinear = 0
Current fsi relative residual norm: 0.031896

Time = 0.0001, iteration: 7
Maximal accumulated displacement of interface points: 0.00510626
GAMG:  Solving for cellMotionUx, Initial residual = 0.815631, Final residual = 4.86311e-05, No Iterations 2
GAMG:  Solving for cellMotionUy, Initial residual = 0.81571, Final residual = 0.000705835, No Iterations 1
GAMG:  Solving for cellMotionUz, Initial residual = 0.711299, Final residual = 0.000549785, No Iterations 1
GAMG:  Solving for cellMotionUx, Initial residual = 7.58791e-05, Final residual = 5.34291e-07, No Iterations 3
GAMG:  Solving for cellMotionUy, Initial residual = 0.00110015, Final residual = 7.68084e-07, No Iterations 4
GAMG:  Solving for cellMotionUz, Initial residual = 0.00073192, Final residual = 5.64322e-07, No Iterations 4
Evolving flow model: consistentIcoFlow
Courant Number mean: 0.000498704 max: 0.0258436 velocity magnitude: 0.0808964
DILUPBiCG:  Solving for Ux, Initial residual = 0.000676944, Final residual = 1.05892e-08, No Iterations 1
DILUPBiCG:  Solving for Uy, Initial residual = 0.000676687, Final residual = 1.05544e-08, No Iterations 1
DILUPBiCG:  Solving for Uz, Initial residual = 0.000220789, Final residual = 5.7623e-09, No Iterations 1
Consistent backwardDdtPhiCorr
GAMG:  Solving for p, Initial residual = 0.0571432, Final residual = 4.68798e-07, No Iterations 13
GAMG:  Solving for p, Initial residual = 0.0121612, Final residual = 6.41851e-07, No Iterations 7
time step continuity errors : sum local = 1.25405e-09, global = -6.30637e-10
Consistent backwardDdtPhiCorr
GAMG:  Solving for p, Initial residual = 0.0024662, Final residual = 4.66877e-07, No Iterations 9
GAMG:  Solving for p, Initial residual = 0.000319171, Final residual = 9.50026e-07, No Iterations 4
time step continuity errors : sum local = 1.84777e-09, global = -1.52835e-11
Consistent backwardDdtPhiCorr
GAMG:  Solving for p, Initial residual = 0.000128939, Final residual = 2.67581e-07, No Iterations 4
GAMG:  Solving for p, Initial residual = 6.38077e-05, Final residual = 2.31922e-07, No Iterations 4
time step continuity errors : sum local = 4.51039e-10, global = 1.21638e-11
Setting traction on solid patch
Total force (fluid) = (-0.0120702 -0.0120704 1.39448e-06)
Total force (solid) = (0.0120661 0.0120663 -1.36524e-06)
Evolving stress model
DICPCG: Solving for D, Initial residula = 0.348889, Final residual = 0.00499984, No outer iterations = 14
Max relative residual = 0.789642, Relative residual = 0.000759992, enforceLinear = 0
Current fsi relative residual norm: 0.0115206

Time = 0.0001, iteration: 8
Maximal accumulated displacement of interface points: 0.0021932
GAMG:  Solving for cellMotionUx, Initial residual = 0.832149, Final residual = 5.30439e-05, No Iterations 2
GAMG:  Solving for cellMotionUy, Initial residual = 0.83203, Final residual = 0.000736335, No Iterations 1
GAMG:  Solving for cellMotionUz, Initial residual = 0.736602, Final residual = 0.000666789, No Iterations 1
GAMG:  Solving for cellMotionUx, Initial residual = 8.65444e-05, Final residual = 6.994e-07, No Iterations 3
GAMG:  Solving for cellMotionUy, Initial residual = 0.00120066, Final residual = 9.85389e-07, No Iterations 4
GAMG:  Solving for cellMotionUz, Initial residual = 0.000954433, Final residual = 7.76815e-07, No Iterations 4
Evolving flow model: consistentIcoFlow
Courant Number mean: 0.000307731 max: 0.0243366 velocity magnitude: 0.0761743
DILUPBiCG:  Solving for Ux, Initial residual = 0.00031672, Final residual = 4.6693e-09, No Iterations 1
DILUPBiCG:  Solving for Uy, Initial residual = 0.000316727, Final residual = 4.65236e-09, No Iterations 1
DILUPBiCG:  Solving for Uz, Initial residual = 7.66518e-05, Final residual = 2.58692e-09, No Iterations 1
Consistent backwardDdtPhiCorr
GAMG:  Solving for p, Initial residual = 0.0264378, Final residual = 4.23045e-07, No Iterations 14
GAMG:  Solving for p, Initial residual = 0.0053843, Final residual = 9.52995e-07, No Iterations 6
time step continuity errors : sum local = 1.81845e-09, global = -1.55123e-10
Consistent backwardDdtPhiCorr
GAMG:  Solving for p, Initial residual = 0.00108448, Final residual = 8.87853e-07, No Iterations 7
GAMG:  Solving for p, Initial residual = 0.000139192, Final residual = 4.41202e-07, No Iterations 4
time step continuity errors : sum local = 8.39813e-10, global = 8.60622e-11
Consistent backwardDdtPhiCorr
GAMG:  Solving for p, Initial residual = 5.72886e-05, Final residual = 5.8169e-07, No Iterations 3
GAMG:  Solving for p, Initial residual = 2.82305e-05, Final residual = 4.51712e-07, No Iterations 3
time step continuity errors : sum local = 8.59777e-10, global = 4.94649e-11
Setting traction on solid patch
Total force (fluid) = (-0.0096115 -0.00961188 1.01579e-06)
Total force (solid) = (0.00960712 0.00960749 -9.89247e-07)
Evolving stress model
DICPCG: Solving for D, Initial residula = 0.150887, Final residual = 0.00251532, No outer iterations = 15
Max relative residual = 0.256327, Relative residual = 0.000243581, enforceLinear = 0
Current fsi relative residual norm: 0.00414344

Time = 0.0001, iteration: 9
Maximal accumulated displacement of interface points: 0.000890669
GAMG:  Solving for cellMotionUx, Initial residual = 0.848779, Final residual = 5.71039e-05, No Iterations 2
GAMG:  Solving for cellMotionUy, Initial residual = 0.848719, Final residual = 0.000768041, No Iterations 1
GAMG:  Solving for cellMotionUz, Initial residual = 0.73698, Final residual = 0.000727892, No Iterations 1
GAMG:  Solving for cellMotionUx, Initial residual = 9.69839e-05, Final residual = 8.47833e-07, No Iterations 3
GAMG:  Solving for cellMotionUy, Initial residual = 0.00130364, Final residual = 1.19835e-06, No Iterations 4
GAMG:  Solving for cellMotionUz, Initial residual = 0.00107069, Final residual = 8.75827e-07, No Iterations 4
Evolving flow model: consistentIcoFlow
Courant Number mean: 0.000214558 max: 0.0238754 velocity magnitude: 0.0747294
DILUPBiCG:  Solving for Ux, Initial residual = 0.000129836, Final residual = 2.81473e-09, No Iterations 1
DILUPBiCG:  Solving for Uy, Initial residual = 0.000129853, Final residual = 2.80758e-09, No Iterations 1
DILUPBiCG:  Solving for Uz, Initial residual = 2.49796e-05, Final residual = 1.19629e-09, No Iterations 1
Consistent backwardDdtPhiCorr
GAMG:  Solving for p, Initial residual = 0.0114396, Final residual = 2.29442e-07, No Iterations 11
GAMG:  Solving for p, Initial residual = 0.00223876, Final residual = 5.82809e-07, No Iterations 6
time step continuity errors : sum local = 1.09903e-09, global = 8.86956e-11
Consistent backwardDdtPhiCorr
GAMG:  Solving for p, Initial residual = 0.000447263, Final residual = 8.28192e-07, No Iterations 5
GAMG:  Solving for p, Initial residual = 5.68684e-05, Final residual = 4.11192e-07, No Iterations 3
time step continuity errors : sum local = 7.74623e-10, global = -1.47055e-10
Consistent backwardDdtPhiCorr
GAMG:  Solving for p, Initial residual = 2.34721e-05, Final residual = 5.81116e-07, No Iterations 2
GAMG:  Solving for p, Initial residual = 1.17806e-05, Final residual = 7.86331e-07, No Iterations 2
time step continuity errors : sum local = 1.4813e-09, global = -9.85959e-11
Setting traction on solid patch
Total force (fluid) = (-0.0107985 -0.0107984 9.14701e-07)
Total force (solid) = (0.0107943 0.0107942 -8.89002e-07)
Evolving stress model
DICPCG: Solving for D, Initial residula = 0.0687759, Final residual = 0.000764813, No outer iterations = 17
Max relative residual = 0.0835827, Relative residual = 7.67389e-05, enforceLinear = 0
Current fsi relative residual norm: 0.00146891

Time = 0.0001, iteration: 10
Maximal accumulated displacement of interface points: 0.000359238
GAMG:  Solving for cellMotionUx, Initial residual = 0.866417, Final residual = 6.10227e-05, No Iterations 2
GAMG:  Solving for cellMotionUy, Initial residual = 0.866594, Final residual = 0.000802845, No Iterations 1
GAMG:  Solving for cellMotionUz, Initial residual = 0.717822, Final residual = 4.48236e-05, No Iterations 2
GAMG:  Solving for cellMotionUx, Initial residual = 0.000107191, Final residual = 9.76195e-07, No Iterations 3
GAMG:  Solving for cellMotionUy, Initial residual = 0.00140835, Final residual = 4.19843e-07, No Iterations 5
GAMG:  Solving for cellMotionUz, Initial residual = 7.06176e-05, Final residual = 9.79105e-07, No Iterations 3
Evolving flow model: consistentIcoFlow
Courant Number mean: 0.000179576 max: 0.0237458 velocity magnitude: 0.0743234
DILUPBiCG:  Solving for Ux, Initial residual = 5.04277e-05, Final residual = 2.83004e-09, No Iterations 1
DILUPBiCG:  Solving for Uy, Initial residual = 5.04521e-05, Final residual = 2.83164e-09, No Iterations 1
DILUPBiCG:  Solving for Uz, Initial residual = 8.65262e-06, Final residual = 8.22612e-10, No Iterations 1
Consistent backwardDdtPhiCorr
GAMG:  Solving for p, Initial residual = 0.00461109, Final residual = 8.06761e-07, No Iterations 10
GAMG:  Solving for p, Initial residual = 0.000871622, Final residual = 4.93054e-07, No Iterations 5
time step continuity errors : sum local = 9.26197e-10, global = 1.36262e-10
Consistent backwardDdtPhiCorr
GAMG:  Solving for p, Initial residual = 0.000173165, Final residual = 7.00865e-07, No Iterations 4
GAMG:  Solving for p, Initial residual = 2.17875e-05, Final residual = 8.42356e-07, No Iterations 2
time step continuity errors : sum local = 1.58179e-09, global = 2.36612e-11
Consistent backwardDdtPhiCorr
GAMG:  Solving for p, Initial residual = 8.91725e-06, Final residual = 2.13123e-07, No Iterations 2
GAMG:  Solving for p, Initial residual = 4.6367e-06, Final residual = 2.9395e-07, No Iterations 2
time step continuity errors : sum local = 5.51979e-10, global = 4.24316e-11
Setting traction on solid patch
Total force (fluid) = (-0.0106008 -0.0106007 8.93533e-07)
Total force (solid) = (0.0105966 0.0105964 -8.68029e-07)
Evolving stress model
DICPCG: Solving for D, Initial residula = 0.0226079, Final residual = 0.000271007, No outer iterations = 18
Max relative residual = 0.0270521, Relative residual = 2.3177e-05, enforceLinear = 0
Current fsi relative residual norm: 0.00052385

Time = 0.0001, iteration: 11
Maximal accumulated displacement of interface points: 0.000138875
GAMG:  Solving for cellMotionUx, Initial residual = 0.872958, Final residual = 6.38185e-05, No Iterations 2
GAMG:  Solving for cellMotionUy, Initial residual = 0.872683, Final residual = 0.000823878, No Iterations 1
GAMG:  Solving for cellMotionUz, Initial residual = 0.689134, Final residual = 4.69863e-05, No Iterations 2
GAMG:  Solving for cellMotionUx, Initial residual = 0.000115092, Final residual = 3.1391e-07, No Iterations 4
GAMG:  Solving for cellMotionUy, Initial residual = 0.00148517, Final residual = 4.82756e-07, No Iterations 5
GAMG:  Solving for cellMotionUz, Initial residual = 7.25703e-05, Final residual = 2.87148e-07, No Iterations 4
Evolving flow model: consistentIcoFlow
Courant Number mean: 0.000165722 max: 0.0237151 velocity magnitude: 0.0742272
DILUPBiCG:  Solving for Ux, Initial residual = 1.94259e-05, Final residual = 6.39976e-10, No Iterations 1
DILUPBiCG:  Solving for Uy, Initial residual = 1.94424e-05, Final residual = 6.41987e-10, No Iterations 1
DILUPBiCG:  Solving for Uz, Initial residual = 3.16385e-06, Final residual = 5.59519e-10, No Iterations 1
Consistent backwardDdtPhiCorr
GAMG:  Solving for p, Initial residual = 0.00178939, Final residual = 3.96232e-07, No Iterations 9
GAMG:  Solving for p, Initial residual = 0.000325808, Final residual = 9.62762e-07, No Iterations 4
time step continuity errors : sum local = 1.80546e-09, global = 9.33575e-11
Consistent backwardDdtPhiCorr
GAMG:  Solving for p, Initial residual = 6.41174e-05, Final residual = 3.30337e-07, No Iterations 3
GAMG:  Solving for p, Initial residual = 8.01737e-06, Final residual = 2.38688e-07, No Iterations 2
time step continuity errors : sum local = 4.47547e-10, global = -8.80224e-11
Consistent backwardDdtPhiCorr
GAMG:  Solving for p, Initial residual = 3.35717e-06, Final residual = 4.32931e-07, No Iterations 1
GAMG:  Solving for p, Initial residual = 1.96298e-06, Final residual = 5.73518e-07, No Iterations 1
time step continuity errors : sum local = 1.07536e-09, global = -5.90452e-11
Setting traction on solid patch
Total force (fluid) = (-0.0106569 -0.0106569 8.88938e-07)
Total force (solid) = (0.0106526 0.0106526 -8.63458e-07)
Evolving stress model
DICPCG: Solving for D, Initial residula = 0.00772791, Final residual = 9.01079e-05, No outer iterations = 19
Max relative residual = 0.00856568, Relative residual = 8.14727e-06, enforceLinear = 0
Current fsi relative residual norm: 0.000213906

Time = 0.0001, iteration: 12
Maximal accumulated displacement of interface points: 5.47191e-05
GAMG:  Solving for cellMotionUx, Initial residual = 0.88106, Final residual = 6.60003e-05, No Iterations 2
GAMG:  Solving for cellMotionUy, Initial residual = 0.881006, Final residual = 0.000844383, No Iterations 1
GAMG:  Solving for cellMotionUz, Initial residual = 0.642397, Final residual = 4.20038e-05, No Iterations 2
GAMG:  Solving for cellMotionUx, Initial residual = 0.000117858, Final residual = 3.43167e-07, No Iterations 4
GAMG:  Solving for cellMotionUy, Initial residual = 0.00150561, Final residual = 5.31167e-07, No Iterations 5
GAMG:  Solving for cellMotionUz, Initial residual = 6.69999e-05, Final residual = 9.33473e-07, No Iterations 3
Evolving flow model: consistentIcoFlow
Courant Number mean: 0.000161 max: 0.0237095 velocity magnitude: 0.0742097
DILUPBiCG:  Solving for Ux, Initial residual = 7.49091e-06, Final residual = 1.04733e-10, No Iterations 1
DILUPBiCG:  Solving for Uy, Initial residual = 7.49553e-06, Final residual = 1.04231e-10, No Iterations 1
DILUPBiCG:  Solving for Uz, Initial residual = 1.20155e-06, Final residual = 4.21052e-11, No Iterations 1
Consistent backwardDdtPhiCorr
GAMG:  Solving for p, Initial residual = 0.000703418, Final residual = 6.22723e-07, No Iterations 6
GAMG:  Solving for p, Initial residual = 0.000124052, Final residual = 3.27784e-07, No Iterations 4
time step continuity errors : sum local = 6.14399e-10, global = 3.85654e-11
Consistent backwardDdtPhiCorr
GAMG:  Solving for p, Initial residual = 2.42661e-05, Final residual = 4.6017e-07, No Iterations 2
GAMG:  Solving for p, Initial residual = 3.06754e-06, Final residual = 5.04396e-07, No Iterations 1
time step continuity errors : sum local = 9.45401e-10, global = 3.83545e-11
Consistent backwardDdtPhiCorr
GAMG:  Solving for p, Initial residual = 1.30119e-06, Final residual = 1.70145e-07, No Iterations 1
GAMG:  Solving for p, Initial residual = 8.07325e-07, Final residual = 2.29848e-07, No Iterations 1
time step continuity errors : sum local = 4.30808e-10, global = 2.88284e-11
Setting traction on solid patch
Total force (fluid) = (-0.0105537 -0.0105537 8.9036e-07)
Total force (solid) = (0.0105494 0.0105494 -8.64876e-07)
Evolving stress model
DICPCG: Solving for D, Initial residula = 0.00274678, Final residual = 3.85102e-05, No outer iterations = 19
Max relative residual = 0.00355183, Relative residual = 3.15626e-06, enforceLinear = 0
Current fsi relative residual norm: 9.73095e-05

Time = 0.0001, iteration: 13
Maximal accumulated displacement of interface points: 2.30899e-05
GAMG:  Solving for cellMotionUx, Initial residual = 0.895237, Final residual = 6.76621e-05, No Iterations 2
GAMG:  Solving for cellMotionUy, Initial residual = 0.895151, Final residual = 0.00086994, No Iterations 1
GAMG:  Solving for cellMotionUz, Initial residual = 0.671265, Final residual = 4.82158e-05, No Iterations 2
GAMG:  Solving for cellMotionUx, Initial residual = 0.000117298, Final residual = 3.62502e-07, No Iterations 4
GAMG:  Solving for cellMotionUy, Initial residual = 0.00150764, Final residual = 5.64392e-07, No Iterations 5
GAMG:  Solving for cellMotionUz, Initial residual = 8.4831e-05, Final residual = 3.26223e-07, No Iterations 4
Evolving flow model: consistentIcoFlow
Courant Number mean: 0.000159306 max: 0.0237094 velocity magnitude: 0.0742093
DILUPBiCG:  Solving for Ux, Initial residual = 3.0216e-06, Final residual = 7.7709e-11, No Iterations 1
DILUPBiCG:  Solving for Uy, Initial residual = 3.02425e-06, Final residual = 7.66183e-11, No Iterations 1
DILUPBiCG:  Solving for Uz, Initial residual = 4.23799e-07, Final residual = 6.88574e-12, No Iterations 1
Consistent backwardDdtPhiCorr
GAMG:  Solving for p, Initial residual = 0.000288659, Final residual = 4.69259e-07, No Iterations 6
GAMG:  Solving for p, Initial residual = 4.94777e-05, Final residual = 5.18924e-07, No Iterations 3
time step continuity errors : sum local = 9.7246e-10, global = 9.16621e-11
Consistent backwardDdtPhiCorr
GAMG:  Solving for p, Initial residual = 9.51585e-06, Final residual = 1.84989e-07, No Iterations 2
GAMG:  Solving for p, Initial residual = 1.19659e-06, Final residual = 1.91889e-07, No Iterations 1
time step continuity errors : sum local = 3.59593e-10, global = -1.89386e-11
Consistent backwardDdtPhiCorr
GAMG:  Solving for p, Initial residual = 5.20909e-07, Final residual = 5.62065e-08, No Iterations 1
GAMG:  Solving for p, Initial residual = 3.1749e-07, Final residual = 8.85843e-08, No Iterations 1
time step continuity errors : sum local = 1.66003e-10, global = -1.20876e-11
Setting traction on solid patch
Total force (fluid) = (-0.0104974 -0.0104974 8.91612e-07)
Total force (solid) = (0.0104931 0.0104931 -8.66124e-07)
Evolving stress model
DICPCG: Solving for D, Initial residula = 0.00114286, Final residual = 2.09513e-05, No outer iterations = 18
Max relative residual = 0.00173697, Relative residual = 1.56691e-06, enforceLinear = 0
Current fsi relative residual norm: 3.62619e-05

Time = 0.0001, iteration: 14
Maximal accumulated displacement of interface points: 9.05586e-06
GAMG:  Solving for cellMotionUx, Initial residual = 0.908444, Final residual = 6.94998e-05, No Iterations 2
GAMG:  Solving for cellMotionUy, Initial residual = 0.908399, Final residual = 0.000893362, No Iterations 1
GAMG:  Solving for cellMotionUz, Initial residual = 0.824052, Final residual = 5.23558e-05, No Iterations 2
GAMG:  Solving for cellMotionUx, Initial residual = 0.000123834, Final residual = 3.92039e-07, No Iterations 4
GAMG:  Solving for cellMotionUy, Initial residual = 0.00158992, Final residual = 6.20657e-07, No Iterations 5
GAMG:  Solving for cellMotionUz, Initial residual = 0.000108222, Final residual = 3.96648e-07, No Iterations 4
Evolving flow model: consistentIcoFlow
Courant Number mean: 0.000158697 max: 0.02371 velocity magnitude: 0.0742112
DILUPBiCG:  Solving for Ux, Initial residual = 1.18871e-06, Final residual = 7.55485e-11, No Iterations 1
DILUPBiCG:  Solving for Uy, Initial residual = 1.18946e-06, Final residual = 7.95691e-11, No Iterations 1
DILUPBiCG:  Solving for Uz, Initial residual = 1.32126e-07, Final residual = 3.34733e-12, No Iterations 1
Consistent backwardDdtPhiCorr
GAMG:  Solving for p, Initial residual = 0.000112836, Final residual = 5.65915e-07, No Iterations 4
GAMG:  Solving for p, Initial residual = 1.86472e-05, Final residual = 7.38432e-07, No Iterations 2
time step continuity errors : sum local = 1.3837e-09, global = 4.95824e-11
Consistent backwardDdtPhiCorr
GAMG:  Solving for p, Initial residual = 3.47434e-06, Final residual = 4.30332e-07, No Iterations 1
GAMG:  Solving for p, Initial residual = 6.55559e-07, Final residual = 1.41082e-07, No Iterations 1
time step continuity errors : sum local = 2.64363e-10, global = 1.75362e-11
Consistent backwardDdtPhiCorr
GAMG:  Solving for p, Initial residual = 2.7575e-07, Final residual = 4.70452e-08, No Iterations 1
GAMG:  Solving for p, Initial residual = 1.40865e-07, Final residual = 3.01975e-08, No Iterations 1
time step continuity errors : sum local = 5.65849e-11, global = 8.68706e-12
Setting traction on solid patch
Total force (fluid) = (-0.0104655 -0.0104655 8.92334e-07)
Total force (solid) = (0.0104612 0.0104612 -8.66845e-07)
Evolving stress model
DICPCG: Solving for D, Initial residula = 0.000435197, Final residual = 8.60553e-06, No outer iterations = 18
Max relative residual = 0.000708124, Relative residual = 6.20827e-07, enforceLinear = 0
Current fsi relative residual norm: 9.58107e-06

Time = 0.0001, iteration: 15
Maximal accumulated displacement of interface points: 2.86094e-06
GAMG:  Solving for cellMotionUx, Initial residual = 0.895073, Final residual = 7.16871e-05, No Iterations 2
GAMG:  Solving for cellMotionUy, Initial residual = 0.895057, Final residual = 0.00089503, No Iterations 1
GAMG:  Solving for cellMotionUz, Initial residual = 0.866626, Final residual = 7.34611e-05, No Iterations 2
GAMG:  Solving for cellMotionUx, Initial residual = 0.000151111, Final residual = 4.6944e-07, No Iterations 4
GAMG:  Solving for cellMotionUy, Initial residual = 0.00188429, Final residual = 7.61187e-07, No Iterations 5
GAMG:  Solving for cellMotionUz, Initial residual = 0.000142834, Final residual = 5.02424e-07, No Iterations 4
Evolving flow model: consistentIcoFlow
Courant Number mean: 0.000158512 max: 0.0237102 velocity magnitude: 0.074212
DILUPBiCG:  Solving for Ux, Initial residual = 3.73727e-07, Final residual = 4.70372e-12, No Iterations 1
DILUPBiCG:  Solving for Uy, Initial residual = 3.74532e-07, Final residual = 4.69281e-12, No Iterations 1
DILUPBiCG:  Solving for Uz, Initial residual = 5.24762e-08, Final residual = 4.56692e-11, No Iterations 1
Consistent backwardDdtPhiCorr
GAMG:  Solving for p, Initial residual = 3.4981e-05, Final residual = 6.54466e-07, No Iterations 3
GAMG:  Solving for p, Initial residual = 5.65877e-06, Final residual = 9.41667e-07, No Iterations 1
time step continuity errors : sum local = 1.76448e-09, global = -4.11978e-11
Consistent backwardDdtPhiCorr
GAMG:  Solving for p, Initial residual = 1.31202e-06, Final residual = 1.90113e-07, No Iterations 1
GAMG:  Solving for p, Initial residual = 2.9823e-07, Final residual = 8.28834e-08, No Iterations 1
time step continuity errors : sum local = 1.55306e-10, global = 4.41823e-11
Consistent backwardDdtPhiCorr
GAMG:  Solving for p, Initial residual = 1.13176e-07, Final residual = 3.21854e-08, No Iterations 1
GAMG:  Solving for p, Initial residual = 6.40079e-08, Final residual = 1.2353e-08, No Iterations 1
time step continuity errors : sum local = 2.31468e-11, global = 9.39948e-12
Setting traction on solid patch
Total force (fluid) = (-0.01046 -0.01046 8.9245e-07)
Total force (solid) = (0.0104557 0.0104557 -8.66962e-07)
Evolving stress model
DICPCG: Solving for D, Initial residula = 0.000112764, Final residual = 1.82807e-06, No outer iterations = 20
Max relative residual = 0.000162009, Relative residual = 1.44769e-07, enforceLinear = 0
Current fsi relative residual norm: 2.22291e-06

Time = 0.0001, iteration: 16
Maximal accumulated displacement of interface points: 7.37461e-07
GAMG:  Solving for cellMotionUx, Initial residual = 0.90371, Final residual = 7.93322e-05, No Iterations 2
GAMG:  Solving for cellMotionUy, Initial residual = 0.90376, Final residual = 7.36504e-05, No Iterations 2
GAMG:  Solving for cellMotionUz, Initial residual = 0.784827, Final residual = 7.15887e-05, No Iterations 2
GAMG:  Solving for cellMotionUx, Initial residual = 0.000191718, Final residual = 5.64745e-07, No Iterations 4
GAMG:  Solving for cellMotionUy, Initial residual = 0.000177956, Final residual = 9.09755e-07, No Iterations 4
GAMG:  Solving for cellMotionUz, Initial residual = 0.000139188, Final residual = 4.69533e-07, No Iterations 4
Evolving flow model: consistentIcoFlow
Courant Number mean: 0.000158464 max: 0.0237103 velocity magnitude: 0.0742122
DILUPBiCG:  Solving for Ux, Initial residual = 9.77777e-08, Final residual = 1.62811e-12, No Iterations 1
DILUPBiCG:  Solving for Uy, Initial residual = 9.8404e-08, Final residual = 1.607e-12, No Iterations 1
DILUPBiCG:  Solving for Uz, Initial residual = 2.04753e-08, Final residual = 4.13282e-13, No Iterations 1
Consistent backwardDdtPhiCorr
GAMG:  Solving for p, Initial residual = 8.99565e-06, Final residual = 4.49999e-07, No Iterations 2
GAMG:  Solving for p, Initial residual = 1.57752e-06, Final residual = 1.85831e-07, No Iterations 1
time step continuity errors : sum local = 3.48205e-10, global = 3.99479e-11
Consistent backwardDdtPhiCorr
GAMG:  Solving for p, Initial residual = 2.94615e-07, Final residual = 1.07272e-07, No Iterations 1
GAMG:  Solving for p, Initial residual = 1.22957e-07, Final residual = 2.67986e-08, No Iterations 1
time step continuity errors : sum local = 5.02146e-11, global = 3.8184e-12
Consistent backwardDdtPhiCorr
GAMG:  Solving for p, Initial residual = 3.46177e-08, Final residual = 1.76123e-08, No Iterations 1
GAMG:  Solving for p, Initial residual = 2.41618e-08, Final residual = 4.32466e-09, No Iterations 1
time step continuity errors : sum local = 8.10344e-12, global = 9.49941e-13
Setting traction on solid patch
Total force (fluid) = (-0.0104585 -0.0104585 8.92492e-07)
Total force (solid) = (0.0104542 0.0104542 -8.67004e-07)
Evolving stress model
DICPCG: Solving for D, Initial residula = 2.54505e-05, Final residual = 1.20191e-06, No outer iterations = 16
Max relative residual = 3.57867e-05, Relative residual = 8.36956e-08, enforceLinear = 0
Current fsi relative residual norm: 4.79327e-07
Max sigmaEq = 1416.21
SigmaEq, max: 812.757, avg: 25.8851, min: 5.09528e-05
ExecutionTime = 17.25 s  ClockTime = 18 s

Time = 0.0002


Time = 0.0002, iteration: 1
Modes before clean-up : 14, modes after clean-up : 14
Maximal accumulated displacement of interface points: 0
GAMG:  Solving for cellMotionUx, Initial residual = 0.946868, Final residual = 9.50393e-05, No Iterations 2
GAMG:  Solving for cellMotionUy, Initial residual = 0.946275, Final residual = 8.59901e-05, No Iterations 2
GAMG:  Solving for cellMotionUz, Initial residual = 0.946738, Final residual = 7.12715e-05, No Iterations 2
GAMG:  Solving for cellMotionUx, Initial residual = 0.00186867, Final residual = 1.27995e-06, No Iterations 5
GAMG:  Solving for cellMotionUy, Initial residual = 0.00171241, Final residual = 6.39613e-07, No Iterations 6
GAMG:  Solving for cellMotionUz, Initial residual = 0.00112335, Final residual = 8.72091e-07, No Iterations 5
Evolving flow model: consistentIcoFlow
Courant Number mean: 0.000410797 max: 0.0464022 velocity magnitude: 0.0742122
DILUPBiCG:  Solving for Ux, Initial residual = 0.24415, Final residual = 1.07299e-10, No Iterations 2
DILUPBiCG:  Solving for Uy, Initial residual = 0.24415, Final residual = 9.39333e-11, No Iterations 2
DILUPBiCG:  Solving for Uz, Initial residual = 0.241647, Final residual = 1.15604e-11, No Iterations 2
Consistent backwardDdtPhiCorr
GAMG:  Solving for p, Initial residual = 0.170409, Final residual = 4.10486e-07, No Iterations 16
GAMG:  Solving for p, Initial residual = 0.0140129, Final residual = 9.12749e-07, No Iterations 7
time step continuity errors : sum local = 2.88509e-09, global = 1.13828e-09
Consistent backwardDdtPhiCorr
GAMG:  Solving for p, Initial residual = 0.00267247, Final residual = 4.68112e-07, No Iterations 9
GAMG:  Solving for p, Initial residual = 0.00039837, Final residual = 3.37224e-07, No Iterations 5
time step continuity errors : sum local = 1.05841e-09, global = 3.91809e-10
Consistent backwardDdtPhiCorr
GAMG:  Solving for p, Initial residual = 0.000104357, Final residual = 4.74051e-07, No Iterations 3
GAMG:  Solving for p, Initial residual = 8.44303e-05, Final residual = 3.17556e-07, No Iterations 4
time step continuity errors : sum local = 9.967e-10, global = 4.27158e-10
Setting traction on solid patch
Total force (fluid) = (-0.595879 -0.595879 -9.81596e-05)
Total force (solid) = (0.595919 0.595919 9.82148e-05)
Evolving stress model
DICPCG: Solving for D, Initial residula = 0.882808, Final residual = 0.00222021, No outer iterations = 14
Max relative residual = 1, Relative residual = 0.000962655, enforceLinear = 0
Current fsi relative residual norm: 1

Time = 0.0002, iteration: 2
Maximal accumulated displacement of interface points: 0.063683
GAMG:  Solving for cellMotionUx, Initial residual = 0.999997, Final residual = 5.92435e-05, No Iterations 2
GAMG:  Solving for cellMotionUy, Initial residual = 0.999997, Final residual = 0.000936579, No Iterations 1
GAMG:  Solving for cellMotionUz, Initial residual = 0.999995, Final residual = 0.000795719, No Iterations 1
GAMG:  Solving for cellMotionUx, Initial residual = 2.11303e-05, Final residual = 2.92138e-07, No Iterations 3
GAMG:  Solving for cellMotionUy, Initial residual = 0.000334091, Final residual = 4.03447e-07, No Iterations 4
GAMG:  Solving for cellMotionUz, Initial residual = 0.000392509, Final residual = 3.84529e-07, No Iterations 4
Evolving flow model: consistentIcoFlow
Courant Number mean: 0.00111709 max: 0.0934244 velocity magnitude: 0.0997408
DILUPBiCG:  Solving for Ux, Initial residual = 0.0105465, Final residual = 1.84932e-07, No Iterations 1
DILUPBiCG:  Solving for Uy, Initial residual = 0.0105501, Final residual = 1.84231e-07, No Iterations 1
DILUPBiCG:  Solving for Uz, Initial residual = 0.0018336, Final residual = 2.21321e-08, No Iterations 1
Consistent backwardDdtPhiCorr
GAMG:  Solving for p, Initial residual = 0.102293, Final residual = 8.24269e-07, No Iterations 14
GAMG:  Solving for p, Initial residual = 0.0179145, Final residual = 4.55521e-07, No Iterations 9
time step continuity errors : sum local = 1.67259e-09, global = -9.91891e-10
Consistent backwardDdtPhiCorr
GAMG:  Solving for p, Initial residual = 0.00333646, Final residual = 4.41672e-07, No Iterations 10
GAMG:  Solving for p, Initial residual = 0.000486987, Final residual = 5.07068e-07, No Iterations 5
time step continuity errors : sum local = 1.83208e-09, global = -2.04479e-10
Consistent backwardDdtPhiCorr
GAMG:  Solving for p, Initial residual = 0.000250282, Final residual = 2.85388e-07, No Iterations 5
GAMG:  Solving for p, Initial residual = 9.8315e-05, Final residual = 3.85581e-07, No Iterations 4
time step continuity errors : sum local = 1.39289e-09, global = -6.88357e-10
Setting traction on solid patch
Total force (fluid) = (0.331341 0.331338 0.000160599)
Total force (solid) = (-0.33134 -0.331337 -0.000160379)
Evolving stress model
DICPCG: Solving for D, Initial residula = 0.242824, Final residual = 0.00923972, No outer iterations = 12
Max relative residual = 3.2031, Relative residual = 0.00288436, enforceLinear = 0
Current fsi relative residual norm: 0.58937

Time = 0.0002, iteration: 3
Maximal accumulated displacement of interface points: 0.00977046
GAMG:  Solving for cellMotionUx, Initial residual = 0.49971, Final residual = 3.27283e-05, No Iterations 2
GAMG:  Solving for cellMotionUy, Initial residual = 0.499963, Final residual = 0.000494729, No Iterations 1
GAMG:  Solving for cellMotionUz, Initial residual = 0.936806, Final residual = 0.000861674, No Iterations 1
GAMG:  Solving for cellMotionUx, Initial residual = 0.000145011, Final residual = 4.74331e-07, No Iterations 4
GAMG:  Solving for cellMotionUy, Initial residual = 0.002181, Final residual = 7.10064e-07, No Iterations 5
GAMG:  Solving for cellMotionUz, Initial residual = 0.00152522, Final residual = 1.12637e-06, No Iterations 4
Evolving flow model: consistentIcoFlow
Courant Number mean: 0.000516729 max: 0.0582651 velocity magnitude: 0.182728
DILUPBiCG:  Solving for Ux, Initial residual = 0.000939482, Final residual = 2.85174e-08, No Iterations 1
DILUPBiCG:  Solving for Uy, Initial residual = 0.00093974, Final residual = 2.85279e-08, No Iterations 1
DILUPBiCG:  Solving for Uz, Initial residual = 0.000958536, Final residual = 2.57637e-08, No Iterations 1
Consistent backwardDdtPhiCorr
GAMG:  Solving for p, Initial residual = 0.0180222, Final residual = 3.82829e-07, No Iterations 12
GAMG:  Solving for p, Initial residual = 0.00647488, Final residual = 5.85098e-07, No Iterations 7
time step continuity errors : sum local = 1.23555e-09, global = 8.1854e-10
Consistent backwardDdtPhiCorr
GAMG:  Solving for p, Initial residual = 0.0013385, Final residual = 6.58274e-07, No Iterations 9
GAMG:  Solving for p, Initial residual = 0.000145463, Final residual = 6.31944e-07, No Iterations 4
time step continuity errors : sum local = 1.33574e-09, global = 3.27878e-10
Consistent backwardDdtPhiCorr
GAMG:  Solving for p, Initial residual = 3.22933e-05, Final residual = 9.50464e-07, No Iterations 2
GAMG:  Solving for p, Initial residual = 1.71211e-05, Final residual = 2.69409e-07, No Iterations 3
time step continuity errors : sum local = 5.69432e-10, global = 2.32291e-10
Setting traction on solid patch
Total force (fluid) = (0.122561 0.122561 6.96271e-05)
Total force (solid) = (-0.122573 -0.122573 -6.9456e-05)
Evolving stress model
DICPCG: Solving for D, Initial residula = 0.101651, Final residual = 0.0026088, No outer iterations = 12
Max relative residual = 1.32579, Relative residual = 0.00119294, enforceLinear = 0
Current fsi relative residual norm: 0.232739

Time = 0.0002, iteration: 4
Maximal accumulated displacement of interface points: 0.00574976
GAMG:  Solving for cellMotionUx, Initial residual = 0.342499, Final residual = 5.02062e-05, No Iterations 2
GAMG:  Solving for cellMotionUy, Initial residual = 0.343542, Final residual = 2.78045e-05, No Iterations 2
GAMG:  Solving for cellMotionUz, Initial residual = 0.45881, Final residual = 3.9706e-05, No Iterations 2
GAMG:  Solving for cellMotionUx, Initial residual = 7.77774e-05, Final residual = 4.53619e-07, No Iterations 3
GAMG:  Solving for cellMotionUy, Initial residual = 4.29092e-05, Final residual = 5.55912e-07, No Iterations 3
GAMG:  Solving for cellMotionUz, Initial residual = 6.25625e-05, Final residual = 4.60007e-07, No Iterations 3
Evolving flow model: consistentIcoFlow
Courant Number mean: 0.000364553 max: 0.0470539 velocity magnitude: 0.147554
DILUPBiCG:  Solving for Ux, Initial residual = 0.000147334, Final residual = 3.36471e-09, No Iterations 1
DILUPBiCG:  Solving for Uy, Initial residual = 0.000147573, Final residual = 3.36814e-09, No Iterations 1
DILUPBiCG:  Solving for Uz, Initial residual = 0.000158646, Final residual = 2.77376e-09, No Iterations 1
Consistent backwardDdtPhiCorr
GAMG:  Solving for p, Initial residual = 0.0155787, Final residual = 7.06058e-07, No Iterations 12
GAMG:  Solving for p, Initial residual = 0.00458014, Final residual = 4.02231e-07, No Iterations 7
time step continuity errors : sum local = 5.83328e-10, global = 3.70657e-10
Consistent backwardDdtPhiCorr
GAMG:  Solving for p, Initial residual = 0.00089227, Final residual = 3.69065e-07, No Iterations 9
GAMG:  Solving for p, Initial residual = 0.000130619, Final residual = 4.77992e-07, No Iterations 4
time step continuity errors : sum local = 6.93619e-10, global = 2.33583e-10
Consistent backwardDdtPhiCorr
GAMG:  Solving for p, Initial residual = 4.38983e-05, Final residual = 2.90996e-07, No Iterations 3
GAMG:  Solving for p, Initial residual = 2.87431e-05, Final residual = 4.9509e-07, No Iterations 3
time step continuity errors : sum local = 7.1844e-10, global = 1.91539e-10
Setting traction on solid patch
Total force (fluid) = (0.0315466 0.0315483 3.28364e-05)
Total force (solid) = (-0.031561 -0.0315627 -3.26808e-05)
Evolving stress model
DICPCG: Solving for D, Initial residula = 0.117285, Final residual = 0.00129653, No outer iterations = 13
Max relative residual = 0.883631, Relative residual = 0.000820546, enforceLinear = 0
Current fsi relative residual norm: 0.0777957

Time = 0.0002, iteration: 5
Maximal accumulated displacement of interface points: 0.00247911
GAMG:  Solving for cellMotionUx, Initial residual = 0.303817, Final residual = 1.92649e-05, No Iterations 2
GAMG:  Solving for cellMotionUy, Initial residual = 0.306147, Final residual = 2.30865e-05, No Iterations 2
GAMG:  Solving for cellMotionUz, Initial residual = 0.489494, Final residual = 0.000340687, No Iterations 1
GAMG:  Solving for cellMotionUx, Initial residual = 3.65602e-05, Final residual = 5.58076e-07, No Iterations 3
GAMG:  Solving for cellMotionUy, Initial residual = 4.38537e-05, Final residual = 7.39491e-07, No Iterations 3
GAMG:  Solving for cellMotionUz, Initial residual = 0.000653457, Final residual = 5.27605e-07, No Iterations 4
Evolving flow model: consistentIcoFlow
Courant Number mean: 0.000318909 max: 0.0408381 velocity magnitude: 0.128058
DILUPBiCG:  Solving for Ux, Initial residual = 7.77538e-05, Final residual = 1.60283e-09, No Iterations 1
DILUPBiCG:  Solving for Uy, Initial residual = 7.77528e-05, Final residual = 1.60442e-09, No Iterations 1
DILUPBiCG:  Solving for Uz, Initial residual = 8.27057e-05, Final residual = 1.56612e-09, No Iterations 1
Consistent backwardDdtPhiCorr
GAMG:  Solving for p, Initial residual = 0.0100801, Final residual = 3.40321e-07, No Iterations 12
GAMG:  Solving for p, Initial residual = 0.00236315, Final residual = 5.26106e-07, No Iterations 6
time step continuity errors : sum local = 6.5998e-10, global = -2.59877e-11
Consistent backwardDdtPhiCorr
GAMG:  Solving for p, Initial residual = 0.000444342, Final residual = 5.91332e-07, No Iterations 7
GAMG:  Solving for p, Initial residual = 7.15138e-05, Final residual = 2.59006e-07, No Iterations 4
time step continuity errors : sum local = 3.24349e-10, global = 1.065e-10
Consistent backwardDdtPhiCorr
GAMG:  Solving for p, Initial residual = 2.60898e-05, Final residual = 9.50919e-07, No Iterations 2
GAMG:  Solving for p, Initial residual = 1.72036e-05, Final residual = 3.04569e-07, No Iterations 3
time step continuity errors : sum local = 3.81411e-10, global = 1.18039e-10
Setting traction on solid patch
Total force (fluid) = (-0.00378491 -0.00379082 1.92521e-05)
Total force (solid) = (0.00377022 0.00377613 -1.91007e-05)
Evolving stress model
DICPCG: Solving for D, Initial residula = 0.150974, Final residual = 0.000423388, No outer iterations = 14
Max relative residual = 0.273473, Relative residual = 0.000201425, enforceLinear = 0
Current fsi relative residual norm: 0.0171799

Time = 0.0002, iteration: 6
Maximal accumulated displacement of interface points: 0.000216453
GAMG:  Solving for cellMotionUx, Initial residual = 0.512504, Final residual = 3.13772e-05, No Iterations 2
GAMG:  Solving for cellMotionUy, Initial residual = 0.509294, Final residual = 0.000477593, No Iterations 1
GAMG:  Solving for cellMotionUz, Initial residual = 0.826665, Final residual = 0.000525744, No Iterations 1
GAMG:  Solving for cellMotionUx, Initial residual = 0.000190881, Final residual = 8.94952e-07, No Iterations 4
GAMG:  Solving for cellMotionUy, Initial residual = 0.00289081, Final residual = 1.08993e-06, No Iterations 5
GAMG:  Solving for cellMotionUz, Initial residual = 0.00172205, Final residual = 4.74991e-07, No Iterations 5
Evolving flow model: consistentIcoFlow
Courant Number mean: 0.000316748 max: 0.0382222 velocity magnitude: 0.119856
DILUPBiCG:  Solving for Ux, Initial residual = 3.21056e-05, Final residual = 7.53158e-10, No Iterations 1
DILUPBiCG:  Solving for Uy, Initial residual = 3.20618e-05, Final residual = 7.52458e-10, No Iterations 1
DILUPBiCG:  Solving for Uz, Initial residual = 3.75034e-05, Final residual = 8.3322e-10, No Iterations 1
Consistent backwardDdtPhiCorr
GAMG:  Solving for p, Initial residual = 0.00143862, Final residual = 2.26033e-07, No Iterations 10
GAMG:  Solving for p, Initial residual = 0.000296008, Final residual = 8.6166e-07, No Iterations 4
time step continuity errors : sum local = 1.07662e-09, global = 1.53712e-10
Consistent backwardDdtPhiCorr
GAMG:  Solving for p, Initial residual = 5.26025e-05, Final residual = 5.96606e-07, No Iterations 4
GAMG:  Solving for p, Initial residual = 1.10567e-05, Final residual = 6.24398e-07, No Iterations 2
time step continuity errors : sum local = 7.80006e-10, global = 6.61377e-12
Consistent backwardDdtPhiCorr
GAMG:  Solving for p, Initial residual = 4.87123e-06, Final residual = 7.33736e-07, No Iterations 1
GAMG:  Solving for p, Initial residual = 3.8133e-06, Final residual = 2.7646e-07, No Iterations 2
time step continuity errors : sum local = 3.45358e-10, global = 3.6445e-11
Setting traction on solid patch
Total force (fluid) = (-0.00741135 -0.00740837 1.82443e-05)
Total force (solid) = (0.00739665 0.00739368 -1.80925e-05)
Evolving stress model
DICPCG: Solving for D, Initial residula = 0.0198408, Final residual = 6.25598e-05, No outer iterations = 13
Max relative residual = 0.0272089, Relative residual = 2.40113e-05, enforceLinear = 0
Current fsi relative residual norm: 0.0109225

Time = 0.0002, iteration: 7
Maximal accumulated displacement of interface points: 7.72864e-05
GAMG:  Solving for cellMotionUx, Initial residual = 0.678477, Final residual = 8.55961e-05, No Iterations 2
GAMG:  Solving for cellMotionUy, Initial residual = 0.694087, Final residual = 5.41435e-05, No Iterations 2
GAMG:  Solving for cellMotionUz, Initial residual = 0.427304, Final residual = 4.9484e-05, No Iterations 2
GAMG:  Solving for cellMotionUx, Initial residual = 0.000262535, Final residual = 8.77859e-07, No Iterations 4
GAMG:  Solving for cellMotionUy, Initial residual = 0.000173117, Final residual = 7.36242e-07, No Iterations 4
GAMG:  Solving for cellMotionUz, Initial residual = 7.02913e-05, Final residual = 6.74564e-07, No Iterations 3
Evolving flow model: consistentIcoFlow
Courant Number mean: 0.000315959 max: 0.0379724 velocity magnitude: 0.119073
DILUPBiCG:  Solving for Ux, Initial residual = 4.09393e-06, Final residual = 8.35534e-11, No Iterations 1
DILUPBiCG:  Solving for Uy, Initial residual = 4.03529e-06, Final residual = 8.3132e-11, No Iterations 1
DILUPBiCG:  Solving for Uz, Initial residual = 3.40486e-06, Final residual = 8.11905e-11, No Iterations 1
Consistent backwardDdtPhiCorr
GAMG:  Solving for p, Initial residual = 0.000459544, Final residual = 4.17144e-07, No Iterations 7
GAMG:  Solving for p, Initial residual = 8.37224e-05, Final residual = 9.77961e-07, No Iterations 3
time step continuity errors : sum local = 1.22158e-09, global = -2.13602e-11
Consistent backwardDdtPhiCorr
GAMG:  Solving for p, Initial residual = 1.3703e-05, Final residual = 7.23816e-07, No Iterations 2
GAMG:  Solving for p, Initial residual = 2.439e-06, Final residual = 4.30134e-07, No Iterations 1
time step continuity errors : sum local = 5.37282e-10, global = -2.52188e-11
Consistent backwardDdtPhiCorr
GAMG:  Solving for p, Initial residual = 9.2588e-07, Final residual = 1.49522e-07, No Iterations 1
GAMG:  Solving for p, Initial residual = 6.71168e-07, Final residual = 1.63037e-07, No Iterations 1
time step continuity errors : sum local = 2.0365e-10, global = 3.99705e-11
Setting traction on solid patch
Total force (fluid) = (-0.00833852 -0.00834266 1.82156e-05)
Total force (solid) = (0.00832385 0.008328 -1.80632e-05)
Evolving stress model
DICPCG: Solving for D, Initial residula = 0.00486723, Final residual = 1.389e-05, No outer iterations = 14
Max relative residual = 0.00683604, Relative residual = 5.23528e-06, enforceLinear = 0
Current fsi relative residual norm: 0.0093837

Time = 0.0002, iteration: 8
Maximal accumulated displacement of interface points: 8.90479e-05
GAMG:  Solving for cellMotionUx, Initial residual = 0.717012, Final residual = 5.88218e-05, No Iterations 2
GAMG:  Solving for cellMotionUy, Initial residual = 0.725537, Final residual = 5.10818e-05, No Iterations 2
GAMG:  Solving for cellMotionUz, Initial residual = 0.464067, Final residual = 0.000305102, No Iterations 1
GAMG:  Solving for cellMotionUx, Initial residual = 4.40541e-05, Final residual = 4.45778e-07, No Iterations 3
GAMG:  Solving for cellMotionUy, Initial residual = 3.60595e-05, Final residual = 5.73489e-07, No Iterations 3
GAMG:  Solving for cellMotionUz, Initial residual = 0.000286067, Final residual = 8.51844e-07, No Iterations 3
Evolving flow model: consistentIcoFlow
Courant Number mean: 0.000312962 max: 0.0379673 velocity magnitude: 0.119058
DILUPBiCG:  Solving for Ux, Initial residual = 3.06656e-06, Final residual = 1.98394e-10, No Iterations 1
DILUPBiCG:  Solving for Uy, Initial residual = 3.1054e-06, Final residual = 2.07344e-10, No Iterations 1
DILUPBiCG:  Solving for Uz, Initial residual = 1.80446e-06, Final residual = 4.95474e-11, No Iterations 1
Consistent backwardDdtPhiCorr
GAMG:  Solving for p, Initial residual = 0.000622962, Final residual = 8.82126e-07, No Iterations 9
GAMG:  Solving for p, Initial residual = 0.00014737, Final residual = 5.37584e-07, No Iterations 4
time step continuity errors : sum local = 6.70903e-10, global = 1.086e-10
Consistent backwardDdtPhiCorr
GAMG:  Solving for p, Initial residual = 2.64112e-05, Final residual = 6.26374e-07, No Iterations 3
GAMG:  Solving for p, Initial residual = 4.2223e-06, Final residual = 7.55348e-07, No Iterations 1
time step continuity errors : sum local = 9.42593e-10, global = 9.19995e-11
Consistent backwardDdtPhiCorr
GAMG:  Solving for p, Initial residual = 1.4733e-06, Final residual = 3.04504e-07, No Iterations 1
GAMG:  Solving for p, Initial residual = 1.02454e-06, Final residual = 2.67886e-07, No Iterations 1
time step continuity errors : sum local = 3.34293e-10, global = 4.67066e-11
Setting traction on solid patch
Total force (fluid) = (-0.0108035 -0.0107938 1.74718e-05)
Total force (solid) = (0.0107888 0.0107791 -1.7319e-05)
Evolving stress model
DICPCG: Solving for D, Initial residula = 0.0124233, Final residual = 6.44487e-05, No outer iterations = 11
Max relative residual = 0.0188556, Relative residual = 1.77117e-05, enforceLinear = 0
Current fsi relative residual norm: 0.00515973

Time = 0.0002, iteration: 9
Maximal accumulated displacement of interface points: 9.31238e-05
GAMG:  Solving for cellMotionUx, Initial residual = 0.133074, Final residual = 1.75862e-05, No Iterations 2
GAMG:  Solving for cellMotionUy, Initial residual = 0.137686, Final residual = 1.46194e-05, No Iterations 2
GAMG:  Solving for cellMotionUz, Initial residual = 0.0561749, Final residual = 5.59865e-06, No Iterations 2
GAMG:  Solving for cellMotionUx, Initial residual = 1.6525e-05, Final residual = 5.17876e-07, No Iterations 2
GAMG:  Solving for cellMotionUy, Initial residual = 1.42239e-05, Final residual = 5.0484e-07, No Iterations 2
GAMG:  Solving for cellMotionUz, Initial residual = 5.37044e-06, Final residual = 9.03479e-07, No Iterations 1
Evolving flow model: consistentIcoFlow
Courant Number mean: 0.000310783 max: 0.0378377 velocity magnitude: 0.118652
DILUPBiCG:  Solving for Ux, Initial residual = 3.41781e-06, Final residual = 5.06885e-11, No Iterations 1
DILUPBiCG:  Solving for Uy, Initial residual = 3.34576e-06, Final residual = 4.97989e-11, No Iterations 1
DILUPBiCG:  Solving for Uz, Initial residual = 1.7389e-06, Final residual = 2.60702e-11, No Iterations 1
Consistent backwardDdtPhiCorr
GAMG:  Solving for p, Initial residual = 0.000664251, Final residual = 9.45872e-07, No Iterations 9
GAMG:  Solving for p, Initial residual = 0.000162378, Final residual = 6.30584e-07, No Iterations 4
time step continuity errors : sum local = 7.86115e-10, global = 1.15697e-10
Consistent backwardDdtPhiCorr
GAMG:  Solving for p, Initial residual = 2.88965e-05, Final residual = 6.73505e-07, No Iterations 3
GAMG:  Solving for p, Initial residual = 4.72564e-06, Final residual = 8.6408e-07, No Iterations 1
time step continuity errors : sum local = 1.0771e-09, global = 1.02145e-10
Consistent backwardDdtPhiCorr
GAMG:  Solving for p, Initial residual = 1.65328e-06, Final residual = 3.38039e-07, No Iterations 1
GAMG:  Solving for p, Initial residual = 1.17525e-06, Final residual = 3.01797e-07, No Iterations 1
time step continuity errors : sum local = 3.76199e-10, global = 5.19979e-11
Setting traction on solid patch
Total force (fluid) = (-0.0134491 -0.013459 1.66828e-05)
Total force (solid) = (0.0134344 0.0134443 -1.65296e-05)
Evolving stress model
DICPCG: Solving for D, Initial residula = 0.0129037, Final residual = 6.92577e-05, No outer iterations = 11
Max relative residual = 0.0198653, Relative residual = 1.95429e-05, enforceLinear = 0
Current fsi relative residual norm: 0.000628552

Time = 0.0002, iteration: 10
Maximal accumulated displacement of interface points: 2.77769e-05
GAMG:  Solving for cellMotionUx, Initial residual = 0.477239, Final residual = 3.54319e-05, No Iterations 2
GAMG:  Solving for cellMotionUy, Initial residual = 0.430634, Final residual = 3.48304e-05, No Iterations 2
GAMG:  Solving for cellMotionUz, Initial residual = 0.510068, Final residual = 0.000397492, No Iterations 1
GAMG:  Solving for cellMotionUx, Initial residual = 0.000105427, Final residual = 8.1615e-07, No Iterations 3
GAMG:  Solving for cellMotionUy, Initial residual = 9.55935e-05, Final residual = 9.69326e-07, No Iterations 3
GAMG:  Solving for cellMotionUz, Initial residual = 0.000803403, Final residual = 9.35089e-07, No Iterations 4
Evolving flow model: consistentIcoFlow
Courant Number mean: 0.000310377 max: 0.0376981 velocity magnitude: 0.118215
DILUPBiCG:  Solving for Ux, Initial residual = 2.15146e-06, Final residual = 4.11133e-11, No Iterations 1
DILUPBiCG:  Solving for Uy, Initial residual = 2.17666e-06, Final residual = 4.10372e-11, No Iterations 1
DILUPBiCG:  Solving for Uz, Initial residual = 2.04394e-06, Final residual = 4.44992e-11, No Iterations 1
Consistent backwardDdtPhiCorr
GAMG:  Solving for p, Initial residual = 0.000205561, Final residual = 4.62511e-07, No Iterations 8
GAMG:  Solving for p, Initial residual = 5.49422e-05, Final residual = 6.58664e-07, No Iterations 3
time step continuity errors : sum local = 8.20782e-10, global = 2.27499e-11
Consistent backwardDdtPhiCorr
GAMG:  Solving for p, Initial residual = 9.0387e-06, Final residual = 4.73586e-07, No Iterations 2
GAMG:  Solving for p, Initial residual = 1.78284e-06, Final residual = 3.53612e-07, No Iterations 1
time step continuity errors : sum local = 4.4063e-10, global = 5.57176e-11
Consistent backwardDdtPhiCorr
GAMG:  Solving for p, Initial residual = 6.49018e-07, Final residual = 1.37645e-07, No Iterations 1
GAMG:  Solving for p, Initial residual = 4.60762e-07, Final residual = 1.18333e-07, No Iterations 1
time step continuity errors : sum local = 1.47452e-10, global = 8.98906e-12
Setting traction on solid patch
Total force (fluid) = (-0.0142482 -0.0142461 1.64797e-05)
Total force (solid) = (0.0142336 0.0142314 -1.63264e-05)
Evolving stress model
DICPCG: Solving for D, Initial residula = 0.00369233, Final residual = 2.06578e-05, No outer iterations = 11
Max relative residual = 0.00574753, Relative residual = 5.41519e-06, enforceLinear = 0
Current fsi relative residual norm: 0.000731302

Time = 0.0002, iteration: 11
Maximal accumulated displacement of interface points: 1.59901e-05
GAMG:  Solving for cellMotionUx, Initial residual = 0.701642, Final residual = 5.43194e-05, No Iterations 2
GAMG:  Solving for cellMotionUy, Initial residual = 0.750422, Final residual = 5.62136e-05, No Iterations 2
GAMG:  Solving for cellMotionUz, Initial residual = 0.955621, Final residual = 0.000720824, No Iterations 1
GAMG:  Solving for cellMotionUx, Initial residual = 0.000100932, Final residual = 2.96341e-07, No Iterations 4
GAMG:  Solving for cellMotionUy, Initial residual = 0.000100993, Final residual = 3.35201e-07, No Iterations 4
GAMG:  Solving for cellMotionUz, Initial residual = 0.00162582, Final residual = 5.0614e-07, No Iterations 5
Evolving flow model: consistentIcoFlow
Courant Number mean: 0.000310882 max: 0.0376605 velocity magnitude: 0.118097
DILUPBiCG:  Solving for Ux, Initial residual = 6.63499e-07, Final residual = 1.46927e-11, No Iterations 1
DILUPBiCG:  Solving for Uy, Initial residual = 6.64748e-07, Final residual = 1.48061e-11, No Iterations 1
DILUPBiCG:  Solving for Uz, Initial residual = 6.38345e-07, Final residual = 2.13597e-11, No Iterations 1
Consistent backwardDdtPhiCorr
GAMG:  Solving for p, Initial residual = 9.79429e-05, Final residual = 9.29492e-07, No Iterations 7
GAMG:  Solving for p, Initial residual = 2.15734e-05, Final residual = 3.03116e-07, No Iterations 3
time step continuity errors : sum local = 3.77749e-10, global = -1.97665e-11
Consistent backwardDdtPhiCorr
GAMG:  Solving for p, Initial residual = 3.87514e-06, Final residual = 6.01479e-07, No Iterations 1
GAMG:  Solving for p, Initial residual = 9.19559e-07, Final residual = 2.20579e-07, No Iterations 1
time step continuity errors : sum local = 2.74893e-10, global = 5.61425e-11
Consistent backwardDdtPhiCorr
GAMG:  Solving for p, Initial residual = 3.02971e-07, Final residual = 9.35527e-08, No Iterations 1
GAMG:  Solving for p, Initial residual = 1.65844e-07, Final residual = 6.90078e-08, No Iterations 1
time step continuity errors : sum local = 8.59997e-11, global = 2.81796e-11
Setting traction on solid patch
Total force (fluid) = (-0.0139485 -0.0139496 1.65893e-05)
Total force (solid) = (0.0139339 0.013935 -1.6436e-05)
Evolving stress model
DICPCG: Solving for D, Initial residula = 0.00136374, Final residual = 5.91899e-06, No outer iterations = 12
Max relative residual = 0.00224773, Relative residual = 2.12156e-06, enforceLinear = 0
Current fsi relative residual norm: 0.000220048

Time = 0.0002, iteration: 12
Maximal accumulated displacement of interface points: 7.0764e-06
GAMG:  Solving for cellMotionUx, Initial residual = 0.407119, Final residual = 4.2268e-05, No Iterations 2
GAMG:  Solving for cellMotionUy, Initial residual = 0.419391, Final residual = 3.38875e-05, No Iterations 2
GAMG:  Solving for cellMotionUz, Initial residual = 0.409293, Final residual = 4.5197e-05, No Iterations 2
GAMG:  Solving for cellMotionUx, Initial residual = 8.06171e-05, Final residual = 5.6278e-07, No Iterations 3
GAMG:  Solving for cellMotionUy, Initial residual = 5.71415e-05, Final residual = 8.25902e-07, No Iterations 3
GAMG:  Solving for cellMotionUz, Initial residual = 6.80969e-05, Final residual = 5.40784e-07, No Iterations 3
Evolving flow model: consistentIcoFlow
Courant Number mean: 0.000310775 max: 0.0376789 velocity magnitude: 0.118154
DILUPBiCG:  Solving for Ux, Initial residual = 2.70408e-07, Final residual = 5.14116e-12, No Iterations 1
DILUPBiCG:  Solving for Uy, Initial residual = 2.81301e-07, Final residual = 5.18941e-12, No Iterations 1
DILUPBiCG:  Solving for Uz, Initial residual = 2.64148e-07, Final residual = 5.02858e-12, No Iterations 1
Consistent backwardDdtPhiCorr
GAMG:  Solving for p, Initial residual = 4.13946e-05, Final residual = 7.5424e-07, No Iterations 6
GAMG:  Solving for p, Initial residual = 9.57173e-06, Final residual = 4.42765e-07, No Iterations 2
time step continuity errors : sum local = 5.5182e-10, global = 3.89556e-11
Consistent backwardDdtPhiCorr
GAMG:  Solving for p, Initial residual = 1.75114e-06, Final residual = 2.89808e-07, No Iterations 1
GAMG:  Solving for p, Initial residual = 4.4906e-07, Final residual = 1.10211e-07, No Iterations 1
time step continuity errors : sum local = 1.37357e-10, global = 4.86186e-11
Consistent backwardDdtPhiCorr
GAMG:  Solving for p, Initial residual = 1.58535e-07, Final residual = 6.04835e-08, No Iterations 1
GAMG:  Solving for p, Initial residual = 1.08752e-07, Final residual = 3.4961e-08, No Iterations 1
time step continuity errors : sum local = 4.35723e-11, global = 8.58497e-12
Setting traction on solid patch
Total force (fluid) = (-0.0137928 -0.013792 1.66402e-05)
Total force (solid) = (0.0137781 0.0137774 -1.64869e-05)
Evolving stress model
DICPCG: Solving for D, Initial residula = 0.000720506, Final residual = 2.99219e-06, No outer iterations = 12
Max relative residual = 0.00112346, Relative residual = 1.07873e-06, enforceLinear = 0
Current fsi relative residual norm: 4.70534e-05

Time = 0.0002, iteration: 13
Maximal accumulated displacement of interface points: 1.45728e-06
GAMG:  Solving for cellMotionUx, Initial residual = 0.427041, Final residual = 3.07223e-05, No Iterations 2
GAMG:  Solving for cellMotionUy, Initial residual = 0.442144, Final residual = 3.32136e-05, No Iterations 2
GAMG:  Solving for cellMotionUz, Initial residual = 0.545564, Final residual = 0.000205804, No Iterations 1
GAMG:  Solving for cellMotionUx, Initial residual = 8.09255e-05, Final residual = 3.01102e-07, No Iterations 4
GAMG:  Solving for cellMotionUy, Initial residual = 0.000120098, Final residual = 4.03741e-07, No Iterations 4
GAMG:  Solving for cellMotionUz, Initial residual = 0.000440974, Final residual = 4.81895e-07, No Iterations 4
Evolving flow model: consistentIcoFlow
Courant Number mean: 0.000310716 max: 0.0376879 velocity magnitude: 0.118183
DILUPBiCG:  Solving for Ux, Initial residual = 1.28431e-07, Final residual = 2.61454e-12, No Iterations 1
DILUPBiCG:  Solving for Uy, Initial residual = 1.23225e-07, Final residual = 2.60707e-12, No Iterations 1
DILUPBiCG:  Solving for Uz, Initial residual = 1.33374e-07, Final residual = 2.77075e-12, No Iterations 1
Consistent backwardDdtPhiCorr
GAMG:  Solving for p, Initial residual = 1.08955e-05, Final residual = 7.87679e-07, No Iterations 4
GAMG:  Solving for p, Initial residual = 3.12998e-06, Final residual = 6.12671e-07, No Iterations 1
time step continuity errors : sum local = 7.6359e-10, global = -2.08065e-10
Consistent backwardDdtPhiCorr
GAMG:  Solving for p, Initial residual = 8.47623e-07, Final residual = 2.43846e-07, No Iterations 1
GAMG:  Solving for p, Initial residual = 2.92982e-07, Final residual = 1.63846e-07, No Iterations 1
time step continuity errors : sum local = 2.04206e-10, global = -1.06552e-10
Consistent backwardDdtPhiCorr
GAMG:  Solving for p, Initial residual = 1.74798e-07, Final residual = 6.28945e-08, No Iterations 1
GAMG:  Solving for p, Initial residual = 7.83852e-08, Final residual = 4.01287e-08, No Iterations 1
time step continuity errors : sum local = 5.00136e-11, global = -2.44871e-11
Setting traction on solid patch
Total force (fluid) = (-0.0137524 -0.0137528 1.66519e-05)
Total force (solid) = (0.0137377 0.0137381 -1.64985e-05)
Evolving stress model
DICPCG: Solving for D, Initial residula = 0.000185343, Final residual = 7.87027e-07, No outer iterations = 12
Max relative residual = 0.000309084, Relative residual = 2.70703e-07, enforceLinear = 0
Current fsi relative residual norm: 0.000114875

Time = 0.0002, iteration: 14
Maximal accumulated displacement of interface points: 2.13255e-06
GAMG:  Solving for cellMotionUx, Initial residual = 0.669534, Final residual = 4.82989e-05, No Iterations 2
GAMG:  Solving for cellMotionUy, Initial residual = 0.769444, Final residual = 5.61691e-05, No Iterations 2
GAMG:  Solving for cellMotionUz, Initial residual = 0.849913, Final residual = 0.000337307, No Iterations 1
GAMG:  Solving for cellMotionUx, Initial residual = 6.62613e-05, Final residual = 7.35671e-07, No Iterations 3
GAMG:  Solving for cellMotionUy, Initial residual = 6.29896e-05, Final residual = 9.51425e-07, No Iterations 3
GAMG:  Solving for cellMotionUz, Initial residual = 0.000399807, Final residual = 5.21678e-07, No Iterations 4
Evolving flow model: consistentIcoFlow
Courant Number mean: 0.000310668 max: 0.0376901 velocity magnitude: 0.118189
DILUPBiCG:  Solving for Ux, Initial residual = 6.19862e-08, Final residual = 1.75139e-12, No Iterations 1
DILUPBiCG:  Solving for Uy, Initial residual = 5.87137e-08, Final residual = 1.64542e-12, No Iterations 1
DILUPBiCG:  Solving for Uz, Initial residual = 4.53009e-08, Final residual = 1.17073e-12, No Iterations 1
Consistent backwardDdtPhiCorr
GAMG:  Solving for p, Initial residual = 1.02817e-05, Final residual = 5.88399e-07, No Iterations 4
GAMG:  Solving for p, Initial residual = 2.46149e-06, Final residual = 5.49961e-07, No Iterations 1
time step continuity errors : sum local = 6.85424e-10, global = 1.77849e-10
Consistent backwardDdtPhiCorr
GAMG:  Solving for p, Initial residual = 7.50832e-07, Final residual = 2.19469e-07, No Iterations 1
GAMG:  Solving for p, Initial residual = 2.53516e-07, Final residual = 1.51007e-07, No Iterations 1
time step continuity errors : sum local = 1.88201e-10, global = 9.61168e-11
Consistent backwardDdtPhiCorr
GAMG:  Solving for p, Initial residual = 1.56102e-07, Final residual = 5.22613e-08, No Iterations 1
GAMG:  Solving for p, Initial residual = 6.05624e-08, Final residual = 3.15666e-08, No Iterations 1
time step continuity errors : sum local = 3.93417e-11, global = 1.88015e-11
Setting traction on solid patch
Total force (fluid) = (-0.0137842 -0.0137841 1.664e-05)
Total force (solid) = (0.0137695 0.0137695 -1.64867e-05)
Evolving stress model
DICPCG: Solving for D, Initial residula = 0.000145823, Final residual = 4.86682e-07, No outer iterations = 13
Max relative residual = 0.000226182, Relative residual = 2.24128e-07, enforceLinear = 0
Current fsi relative residual norm: 6.17995e-05

Time = 0.0002, iteration: 15
Maximal accumulated displacement of interface points: 9.15863e-07
GAMG:  Solving for cellMotionUx, Initial residual = 0.315956, Final residual = 4.11639e-05, No Iterations 2
GAMG:  Solving for cellMotionUy, Initial residual = 0.349508, Final residual = 4.22819e-05, No Iterations 2
GAMG:  Solving for cellMotionUz, Initial residual = 0.420899, Final residual = 5.41059e-05, No Iterations 2
GAMG:  Solving for cellMotionUx, Initial residual = 5.56093e-05, Final residual = 4.83387e-07, No Iterations 3
GAMG:  Solving for cellMotionUy, Initial residual = 5.32497e-05, Final residual = 6.76066e-07, No Iterations 3
GAMG:  Solving for cellMotionUz, Initial residual = 6.48504e-05, Final residual = 6.90649e-07, No Iterations 3
Evolving flow model: consistentIcoFlow
Courant Number mean: 0.000310659 max: 0.037688 velocity magnitude: 0.118183
DILUPBiCG:  Solving for Ux, Initial residual = 3.42755e-08, Final residual = 6.15648e-13, No Iterations 1
DILUPBiCG:  Solving for Uy, Initial residual = 3.48651e-08, Final residual = 6.17072e-13, No Iterations 1
DILUPBiCG:  Solving for Uz, Initial residual = 3.08202e-08, Final residual = 5.31757e-13, No Iterations 1
Consistent backwardDdtPhiCorr
GAMG:  Solving for p, Initial residual = 6.14171e-06, Final residual = 4.70099e-07, No Iterations 4
GAMG:  Solving for p, Initial residual = 1.56323e-06, Final residual = 3.58093e-07, No Iterations 1
time step continuity errors : sum local = 4.46291e-10, global = 1.30952e-10
Consistent backwardDdtPhiCorr
GAMG:  Solving for p, Initial residual = 4.76132e-07, Final residual = 1.42088e-07, No Iterations 1
GAMG:  Solving for p, Initial residual = 1.65518e-07, Final residual = 9.40021e-08, No Iterations 1
time step continuity errors : sum local = 1.17155e-10, global = 6.02136e-11
Consistent backwardDdtPhiCorr
GAMG:  Solving for p, Initial residual = 9.86879e-08, Final residual = 3.30946e-08, No Iterations 1
GAMG:  Solving for p, Initial residual = 3.96723e-08, Final residual = 2.0484e-08, No Iterations 1
time step continuity errors : sum local = 2.55292e-11, global = 1.16624e-11
Setting traction on solid patch
Total force (fluid) = (-0.0138075 -0.0138075 1.66326e-05)
Total force (solid) = (0.0137928 0.0137929 -1.64793e-05)
Evolving stress model
DICPCG: Solving for D, Initial residula = 0.000107147, Final residual = 4.48732e-07, No outer iterations = 12
Max relative residual = 0.00017331, Relative residual = 1.49111e-07, enforceLinear = 0
Current fsi relative residual norm: 2.15061e-05

[...]
GAMG:  Solving for cellMotionUz, Initial residual = 0.518315, Final residual = 3.98661e-05, No Iterations 2
GAMG:  Solving for cellMotionUx, Initial residual = 0.000204958, Final residual = 6.28981e-07, No Iterations 4
GAMG:  Solving for cellMotionUy, Initial residual = 0.000210164, Final residual = 9.30357e-07, No Iterations 4
GAMG:  Solving for cellMotionUz, Initial residual = 6.23202e-05, Final residual = 8.73488e-07, No Iterations 3
Evolving flow model: consistentIcoFlow
Courant Number mean: 0.00270434 max: 0.095754 velocity magnitude: 0.304675
DILUPBiCG:  Solving for Ux, Initial residual = 7.31791e-05, Final residual = 6.81085e-08, No Iterations 1
DILUPBiCG:  Solving for Uy, Initial residual = 9.09951e-05, Final residual = 5.5361e-08, No Iterations 1
DILUPBiCG:  Solving for Uz, Initial residual = 7.41552e-05, Final residual = 3.04097e-09, No Iterations 1
Consistent backwardDdtPhiCorr
GAMG:  Solving for p, Initial residual = 0.0280381, Final residual = 8.11523e-07, No Iterations 11
GAMG:  Solving for p, Initial residual = 0.00868855, Final residual = 4.51308e-07, No Iterations 9
time step continuity errors : sum local = 5.68638e-10, global = -1.5448e-10
Consistent backwardDdtPhiCorr
GAMG:  Solving for p, Initial residual = 0.0012874, Final residual = 6.46106e-07, No Iterations 8
GAMG:  Solving for p, Initial residual = 0.000217041, Final residual = 3.32396e-07, No Iterations 4
time step continuity errors : sum local = 4.18102e-10, global = 1.11233e-10
Consistent backwardDdtPhiCorr
GAMG:  Solving for p, Initial residual = 7.06498e-05, Final residual = 3.90936e-07, No Iterations 3
GAMG:  Solving for p, Initial residual = 3.96096e-05, Final residual = 3.72674e-07, No Iterations 3
time step continuity errors : sum local = 4.68794e-10, global = -3.28574e-11
Setting traction on solid patch
Total force (fluid) = (-0.0764032 -0.0780999 0.000158775)
Total force (solid) = (0.0754258 0.0771147 -0.000154343)
Evolving stress model
DICPCG: Solving for D, Initial residula = 0.0018885, Final residual = 2.49091e-05, No outer iterations = 12
Max relative residual = 0.0399773, Relative residual = 3.99222e-05, enforceLinear = 0
Current fsi relative residual norm: 0.00122383

Time = 0.002, iteration: 6
Maximal accumulated displacement of interface points: 0.000467163
GAMG:  Solving for cellMotionUx, Initial residual = 0.807283, Final residual = 9.92037e-05, No Iterations 2
GAMG:  Solving for cellMotionUy, Initial residual = 0.780828, Final residual = 7.92708e-05, No Iterations 2
GAMG:  Solving for cellMotionUz, Initial residual = 0.232616, Final residual = 2.46074e-05, No Iterations 2
GAMG:  Solving for cellMotionUx, Initial residual = 0.000209813, Final residual = 5.2254e-07, No Iterations 4
GAMG:  Solving for cellMotionUy, Initial residual = 0.000174769, Final residual = 6.49459e-07, No Iterations 4
GAMG:  Solving for cellMotionUz, Initial residual = 2.87728e-05, Final residual = 3.50446e-07, No Iterations 3
Evolving flow model: consistentIcoFlow
Courant Number mean: 0.00267677 max: 0.0947955 velocity magnitude: 0.301612
DILUPBiCG:  Solving for Ux, Initial residual = 1.6973e-05, Final residual = 6.52796e-10, No Iterations 1
DILUPBiCG:  Solving for Uy, Initial residual = 2.06927e-05, Final residual = 1.08058e-09, No Iterations 1
DILUPBiCG:  Solving for Uz, Initial residual = 1.7165e-05, Final residual = 1.00139e-09, No Iterations 1
Consistent backwardDdtPhiCorr
GAMG:  Solving for p, Initial residual = 0.0104357, Final residual = 6.52295e-07, No Iterations 11
GAMG:  Solving for p, Initial residual = 0.00380688, Final residual = 4.52246e-07, No Iterations 6
time step continuity errors : sum local = 5.69166e-10, global = -3.52863e-12
Consistent backwardDdtPhiCorr
GAMG:  Solving for p, Initial residual = 0.000538554, Final residual = 5.14737e-07, No Iterations 5
GAMG:  Solving for p, Initial residual = 9.46543e-05, Final residual = 5.84148e-07, No Iterations 3
time step continuity errors : sum local = 7.3496e-10, global = -1.7269e-10
Consistent backwardDdtPhiCorr
GAMG:  Solving for p, Initial residual = 2.6066e-05, Final residual = 4.86692e-07, No Iterations 2
GAMG:  Solving for p, Initial residual = 1.49912e-05, Final residual = 6.76131e-07, No Iterations 2
time step continuity errors : sum local = 8.50702e-10, global = -1.91829e-10
Setting traction on solid patch
Total force (fluid) = (-0.0736284 -0.0728202 0.000186774)
Total force (solid) = (0.0726558 0.0718521 -0.000181994)
Evolving stress model
DICPCG: Solving for D, Initial residula = 0.000718806, Final residual = 1.27714e-05, No outer iterations = 10
Max relative residual = 0.0204226, Relative residual = 1.80528e-05, enforceLinear = 0
Current fsi relative residual norm: 0.000409363

Time = 0.002, iteration: 7
Maximal accumulated displacement of interface points: 0.000293052
GAMG:  Solving for cellMotionUx, Initial residual = 0.751997, Final residual = 0.000102888, No Iterations 2
GAMG:  Solving for cellMotionUy, Initial residual = 0.805597, Final residual = 8.6367e-05, No Iterations 2
GAMG:  Solving for cellMotionUz, Initial residual = 0.430103, Final residual = 0.000380928, No Iterations 1
GAMG:  Solving for cellMotionUx, Initial residual = 0.000183803, Final residual = 3.64214e-07, No Iterations 4
GAMG:  Solving for cellMotionUy, Initial residual = 0.000141751, Final residual = 4.52519e-07, No Iterations 4
GAMG:  Solving for cellMotionUz, Initial residual = 0.000780259, Final residual = 2.77073e-07, No Iterations 5
Evolving flow model: consistentIcoFlow
Courant Number mean: 0.00266773 max: 0.0947674 velocity magnitude: 0.301519
DILUPBiCG:  Solving for Ux, Initial residual = 8.96403e-06, Final residual = 4.36597e-10, No Iterations 1
DILUPBiCG:  Solving for Uy, Initial residual = 7.1892e-06, Final residual = 3.25409e-10, No Iterations 1
DILUPBiCG:  Solving for Uz, Initial residual = 6.6222e-06, Final residual = 4.57385e-10, No Iterations 1
Consistent backwardDdtPhiCorr
GAMG:  Solving for p, Initial residual = 0.00494062, Final residual = 3.56297e-07, No Iterations 10
GAMG:  Solving for p, Initial residual = 0.00158299, Final residual = 8.24102e-07, No Iterations 5
time step continuity errors : sum local = 1.03532e-09, global = -2.54e-10
Consistent backwardDdtPhiCorr
GAMG:  Solving for p, Initial residual = 0.000225169, Final residual = 4.54518e-07, No Iterations 4
GAMG:  Solving for p, Initial residual = 3.84485e-05, Final residual = 2.55943e-07, No Iterations 3
time step continuity errors : sum local = 3.21432e-10, global = -6.26589e-11
Consistent backwardDdtPhiCorr
GAMG:  Solving for p, Initial residual = 1.12009e-05, Final residual = 1.50009e-07, No Iterations 2
GAMG:  Solving for p, Initial residual = 6.28225e-06, Final residual = 3.19191e-07, No Iterations 2
time step continuity errors : sum local = 4.00862e-10, global = -4.1972e-11
Setting traction on solid patch
Total force (fluid) = (-0.0716015 -0.0716682 0.000195035)
Total force (solid) = (0.0706375 0.0707033 -0.000190153)
Evolving stress model
DICPCG: Solving for D, Initial residula = 0.000266381, Final residual = 3.79273e-06, No outer iterations = 12
Max relative residual = 0.00728048, Relative residual = 6.91315e-06, enforceLinear = 0
Current fsi relative residual norm: 7.4438e-05

Time = 0.002, iteration: 8
Maximal accumulated displacement of interface points: 7.29455e-05
GAMG:  Solving for cellMotionUx, Initial residual = 0.738227, Final residual = 8.90531e-05, No Iterations 2
GAMG:  Solving for cellMotionUy, Initial residual = 0.791986, Final residual = 9.43691e-05, No Iterations 2
GAMG:  Solving for cellMotionUz, Initial residual = 0.75737, Final residual = 0.000650401, No Iterations 1
GAMG:  Solving for cellMotionUx, Initial residual = 0.000217959, Final residual = 4.96619e-07, No Iterations 4
GAMG:  Solving for cellMotionUy, Initial residual = 0.00022968, Final residual = 7.88893e-07, No Iterations 4
GAMG:  Solving for cellMotionUz, Initial residual = 0.00315536, Final residual = 1.29639e-06, No Iterations 5
Evolving flow model: consistentIcoFlow
Courant Number mean: 0.0026627 max: 0.0948548 velocity magnitude: 0.301798
DILUPBiCG:  Solving for Ux, Initial residual = 3.54505e-06, Final residual = 6.52592e-09, No Iterations 1
DILUPBiCG:  Solving for Uy, Initial residual = 2.18861e-06, Final residual = 1.31641e-10, No Iterations 1
DILUPBiCG:  Solving for Uz, Initial residual = 2.6374e-06, Final residual = 8.20485e-10, No Iterations 1
Consistent backwardDdtPhiCorr
GAMG:  Solving for p, Initial residual = 0.00132859, Final residual = 6.31363e-07, No Iterations 8
GAMG:  Solving for p, Initial residual = 0.000404813, Final residual = 7.07699e-07, No Iterations 4
time step continuity errors : sum local = 8.88675e-10, global = 1.74216e-10
Consistent backwardDdtPhiCorr
GAMG:  Solving for p, Initial residual = 5.72758e-05, Final residual = 3.80682e-07, No Iterations 3
GAMG:  Solving for p, Initial residual = 9.977e-06, Final residual = 3.13758e-07, No Iterations 2
time step continuity errors : sum local = 3.93987e-10, global = 1.50001e-11
Consistent backwardDdtPhiCorr
GAMG:  Solving for p, Initial residual = 3.15699e-06, Final residual = 3.67202e-07, No Iterations 1
GAMG:  Solving for p, Initial residual = 2.0398e-06, Final residual = 5.37833e-07, No Iterations 1
time step continuity errors : sum local = 6.75359e-10, global = 6.07814e-11
Setting traction on solid patch
Total force (fluid) = (-0.071781 -0.071784 0.000194354)
Total force (solid) = (0.0708164 0.0708198 -0.000189483)
Evolving stress model
DICPCG: Solving for D, Initial residula = 5.08872e-05, Final residual = 1.08438e-06, No outer iterations = 12
Max relative residual = 0.00189648, Relative residual = 1.8641e-06, enforceLinear = 0
Current fsi relative residual norm: 4.37185e-05

Time = 0.002, iteration: 9
Maximal accumulated displacement of interface points: 2.96799e-05
GAMG:  Solving for cellMotionUx, Initial residual = 0.931974, Final residual = 0.000117331, No Iterations 2
GAMG:  Solving for cellMotionUy, Initial residual = 0.902068, Final residual = 9.54602e-05, No Iterations 2
GAMG:  Solving for cellMotionUz, Initial residual = 0.470654, Final residual = 7.51104e-05, No Iterations 2
GAMG:  Solving for cellMotionUx, Initial residual = 0.000198576, Final residual = 4.01323e-07, No Iterations 4
GAMG:  Solving for cellMotionUy, Initial residual = 0.00016879, Final residual = 4.84032e-07, No Iterations 4
GAMG:  Solving for cellMotionUz, Initial residual = 9.40111e-05, Final residual = 9.34032e-07, No Iterations 3
Evolving flow model: consistentIcoFlow
Courant Number mean: 0.00266194 max: 0.0948723 velocity magnitude: 0.301854
DILUPBiCG:  Solving for Ux, Initial residual = 8.0404e-07, Final residual = 1.95784e-10, No Iterations 1
DILUPBiCG:  Solving for Uy, Initial residual = 8.19956e-07, Final residual = 1.52692e-10, No Iterations 1
DILUPBiCG:  Solving for Uz, Initial residual = 7.25928e-07, Final residual = 3.5536e-11, No Iterations 1
Consistent backwardDdtPhiCorr
GAMG:  Solving for p, Initial residual = 0.000589881, Final residual = 9.92367e-07, No Iterations 6
GAMG:  Solving for p, Initial residual = 0.000178258, Final residual = 4.45651e-07, No Iterations 4
time step continuity errors : sum local = 5.59491e-10, global = -9.16326e-11
Consistent backwardDdtPhiCorr
GAMG:  Solving for p, Initial residual = 2.53712e-05, Final residual = 4.98229e-07, No Iterations 2
GAMG:  Solving for p, Initial residual = 4.19461e-06, Final residual = 6.74446e-07, No Iterations 1
time step continuity errors : sum local = 8.46694e-10, global = -4.64437e-11
Consistent backwardDdtPhiCorr
GAMG:  Solving for p, Initial residual = 1.42039e-06, Final residual = 1.42694e-07, No Iterations 1
GAMG:  Solving for p, Initial residual = 8.50348e-07, Final residual = 2.08359e-07, No Iterations 1
time step continuity errors : sum local = 2.61571e-10, global = -2.60005e-11
Setting traction on solid patch
Total force (fluid) = (-0.0718728 -0.0718679 0.000194426)
Total force (solid) = (0.0709083 0.0709033 -0.000189552)
Evolving stress model
DICPCG: Solving for D, Initial residula = 2.79458e-05, Final residual = 4.47693e-07, No outer iterations = 12
Max relative residual = 0.000670934, Relative residual = 6.15044e-07, enforceLinear = 0
Current fsi relative residual norm: 1.34222e-05

Time = 0.002, iteration: 10
Maximal accumulated displacement of interface points: 1.10264e-05
GAMG:  Solving for cellMotionUx, Initial residual = 0.860221, Final residual = 0.000112639, No Iterations 2
GAMG:  Solving for cellMotionUy, Initial residual = 0.87989, Final residual = 9.642e-05, No Iterations 2
GAMG:  Solving for cellMotionUz, Initial residual = 0.607213, Final residual = 5.72905e-05, No Iterations 2
GAMG:  Solving for cellMotionUx, Initial residual = 0.000252652, Final residual = 4.17476e-07, No Iterations 4
GAMG:  Solving for cellMotionUy, Initial residual = 0.000184437, Final residual = 6.33687e-07, No Iterations 4
GAMG:  Solving for cellMotionUz, Initial residual = 0.000137601, Final residual = 4.67247e-07, No Iterations 4
Evolving flow model: consistentIcoFlow
Courant Number mean: 0.00266142 max: 0.0948657 velocity magnitude: 0.301833
DILUPBiCG:  Solving for Ux, Initial residual = 3.29047e-07, Final residual = 6.18665e-11, No Iterations 1
DILUPBiCG:  Solving for Uy, Initial residual = 2.24525e-07, Final residual = 4.4946e-11, No Iterations 1
DILUPBiCG:  Solving for Uz, Initial residual = 2.11259e-07, Final residual = 8.58623e-12, No Iterations 1
Consistent backwardDdtPhiCorr
GAMG:  Solving for p, Initial residual = 0.000173613, Final residual = 7.26747e-07, No Iterations 5
GAMG:  Solving for p, Initial residual = 4.6742e-05, Final residual = 3.03746e-07, No Iterations 3
time step continuity errors : sum local = 3.81316e-10, global = 3.73167e-11
Consistent backwardDdtPhiCorr
GAMG:  Solving for p, Initial residual = 6.38584e-06, Final residual = 8.73977e-07, No Iterations 1
GAMG:  Solving for p, Initial residual = 1.60991e-06, Final residual = 2.04803e-07, No Iterations 1
time step continuity errors : sum local = 2.57104e-10, global = -1.82489e-13
Consistent backwardDdtPhiCorr
GAMG:  Solving for p, Initial residual = 4.8409e-07, Final residual = 7.37592e-08, No Iterations 1
GAMG:  Solving for p, Initial residual = 2.83492e-07, Final residual = 5.41173e-08, No Iterations 1
time step continuity errors : sum local = 6.79374e-11, global = 4.10737e-12
Setting traction on solid patch
Total force (fluid) = (-0.0718013 -0.0718051 0.000194596)
Total force (solid) = (0.0708369 0.0708407 -0.000189721)
Evolving stress model
DICPCG: Solving for D, Initial residula = 9.65738e-06, Final residual = 1.09029e-07, No outer iterations = 13
Max relative residual = 0.000218044, Relative residual = 1.95319e-07, enforceLinear = 0
Current fsi relative residual norm: 3.1284e-06

Time = 0.002, iteration: 11
Maximal accumulated displacement of interface points: 2.71047e-06
GAMG:  Solving for cellMotionUx, Initial residual = 0.837432, Final residual = 0.000109399, No Iterations 2
GAMG:  Solving for cellMotionUy, Initial residual = 0.869999, Final residual = 9.7375e-05, No Iterations 2
GAMG:  Solving for cellMotionUz, Initial residual = 0.703704, Final residual = 7.20132e-05, No Iterations 2
GAMG:  Solving for cellMotionUx, Initial residual = 0.000284635, Final residual = 6.49123e-07, No Iterations 4
GAMG:  Solving for cellMotionUy, Initial residual = 0.000235754, Final residual = 8.48016e-07, No Iterations 4
GAMG:  Solving for cellMotionUz, Initial residual = 0.000206477, Final residual = 6.86066e-07, No Iterations 4
Evolving flow model: consistentIcoFlow
Courant Number mean: 0.0026612 max: 0.0948636 velocity magnitude: 0.301826
DILUPBiCG:  Solving for Ux, Initial residual = 5.84007e-08, Final residual = 1.11486e-11, No Iterations 1
DILUPBiCG:  Solving for Uy, Initial residual = 6.71218e-08, Final residual = 6.73602e-12, No Iterations 1
DILUPBiCG:  Solving for Uz, Initial residual = 5.76377e-08, Final residual = 3.96688e-12, No Iterations 1
Consistent backwardDdtPhiCorr
GAMG:  Solving for p, Initial residual = 4.64027e-05, Final residual = 4.34824e-07, No Iterations 4
GAMG:  Solving for p, Initial residual = 1.29353e-05, Final residual = 3.80468e-07, No Iterations 2
time step continuity errors : sum local = 4.77626e-10, global = 5.78108e-13
Consistent backwardDdtPhiCorr
GAMG:  Solving for p, Initial residual = 1.9542e-06, Final residual = 3.10191e-07, No Iterations 1
GAMG:  Solving for p, Initial residual = 5.75438e-07, Final residual = 7.72044e-08, No Iterations 1
time step continuity errors : sum local = 9.69198e-11, global = -5.85662e-12
Consistent backwardDdtPhiCorr
GAMG:  Solving for p, Initial residual = 1.79855e-07, Final residual = 3.99846e-08, No Iterations 1
GAMG:  Solving for p, Initial residual = 9.78604e-08, Final residual = 1.68205e-08, No Iterations 1
time step continuity errors : sum local = 2.11159e-11, global = -6.903e-13
Setting traction on solid patch
Total force (fluid) = (-0.0718074 -0.071807 0.000194534)
Total force (solid) = (0.070843 0.0708426 -0.00018966)
Evolving stress model
DICPCG: Solving for D, Initial residula = 1.4656e-06, Final residual = 4.84209e-08, No outer iterations = 11
Max relative residual = 4.31309e-05, Relative residual = 8.99919e-08, enforceLinear = 0
Current fsi relative residual norm: 1.42458e-06

Time = 0.002, iteration: 12
Maximal accumulated displacement of interface points: 9.27779e-07
GAMG:  Solving for cellMotionUx, Initial residual = 0.820252, Final residual = 0.000117263, No Iterations 2
GAMG:  Solving for cellMotionUy, Initial residual = 0.784775, Final residual = 9.60281e-05, No Iterations 2
GAMG:  Solving for cellMotionUz, Initial residual = 0.509406, Final residual = 5.93661e-05, No Iterations 2
GAMG:  Solving for cellMotionUx, Initial residual = 0.000245023, Final residual = 4.41531e-07, No Iterations 4
GAMG:  Solving for cellMotionUy, Initial residual = 0.00020757, Final residual = 5.96446e-07, No Iterations 4
GAMG:  Solving for cellMotionUz, Initial residual = 0.000106204, Final residual = 2.87763e-07, No Iterations 4
Evolving flow model: consistentIcoFlow
Courant Number mean: 0.00266119 max: 0.0948639 velocity magnitude: 0.301827
DILUPBiCG:  Solving for Ux, Initial residual = 1.98627e-08, Final residual = 8.64034e-13, No Iterations 1
DILUPBiCG:  Solving for Uy, Initial residual = 1.8705e-08, Final residual = 5.34257e-13, No Iterations 1
DILUPBiCG:  Solving for Uz, Initial residual = 1.65119e-08, Final residual = 7.788e-13, No Iterations 1
Consistent backwardDdtPhiCorr
GAMG:  Solving for p, Initial residual = 1.61412e-05, Final residual = 4.92363e-07, No Iterations 3
GAMG:  Solving for p, Initial residual = 5.89995e-06, Final residual = 7.7236e-07, No Iterations 1
time step continuity errors : sum local = 9.69591e-10, global = 2.39029e-11
Consistent backwardDdtPhiCorr
GAMG:  Solving for p, Initial residual = 1.20228e-06, Final residual = 1.49786e-07, No Iterations 1
GAMG:  Solving for p, Initial residual = 2.99463e-07, Final residual = 7.03789e-08, No Iterations 1
time step continuity errors : sum local = 8.8351e-11, global = -2.97437e-11
Consistent backwardDdtPhiCorr
GAMG:  Solving for p, Initial residual = 9.76414e-08, Final residual = 2.90333e-08, No Iterations 1
GAMG:  Solving for p, Initial residual = 4.82349e-08, Final residual = 1.15144e-08, No Iterations 1
time step continuity errors : sum local = 1.44548e-11, global = -6.22921e-12
Setting traction on solid patch
Total force (fluid) = (-0.0718141 -0.0718153 0.000194504)
Total force (solid) = (0.0708497 0.0708508 -0.00018963)
Evolving stress model
DICPCG: Solving for D, Initial residula = 1.06151e-06, Final residual = 4.27632e-08, No outer iterations = 7
Max relative residual = 2.16556e-05, Relative residual = 8.02664e-08, enforceLinear = 0
Current fsi relative residual norm: 5.89706e-07
Max sigmaEq = 8814.02
SigmaEq, max: 8387.61, avg: 1321.6, min: 0.490766
ExecutionTime = 247.46 s  ClockTime = 248 s

End

