/*---------------------------------------------------------------------------*\
| =========                 |                                                 |
| \\      /  F ield         | foam-extend: Open Source CFD                    |
|  \\    /   O peration     | Version:     3.1                                |
|   \\  /    A nd           | Web:         http://www.extend-project.de       |
|    \\/     M anipulation  |                                                 |
\*---------------------------------------------------------------------------*/
Build    : 3.1-7d8e040bf53d
Exec     : fsiFoam
Date     : Mar 24 2017
Time     : 21:36:36
Host     : node01-el7
PID      : 16187
CtrlDict : /home/rdu/foam/foam-extend-3.1/etc/controlDict
Case     : /home/rdu/foam/rdu-3.1/FluidStructureInteraction/run/fsiFoam/beamInCrossFlow/fluid
nProcs   : 1
SigFpe   : Enabling floating point exception trapping (FOAM_SIGFPE).

// * * * * * * * * * * * * * * * * * * * * * * * * * * * * * * * * * * * * * //
Create time

Create dynamic mesh for time = 0

Selecting dynamicFvMesh dynamicMotionSolverFvMesh
Selecting motion solver: velocityLaplacian
Selecting motion diffusion: quadratic
Selecting motion diffusion: inverseDistance
 Reading stress mesh
Creating traction displacement boundary conditions
Creating fixed displacement boundary condition
Selecting rheology model linearElastic
Creating constitutive model
Selecting coupling scheme Aitken

Starting time loop

Creating beamReport function object.
History point ID: 120
History point coordinates: (0.45 0.15 -0.15)
Reference point coordinates: (0.45 0.15 -0.15)
Seting inlet velocity
Umax = 0.00489435
Time = 0.1

Create extended GGI zone-to-zone interpolator
Checking fluid-to-solid face interpolator
Fluid-to-solid face interpolation error: 2.22478e-16
Checking solid-to-fluid point interpolator (GGI)
Extended GGI, master point distance, max: 0, avg: 0, min: 0
Extended GGI, master point orientation (<0), max: -0.57735, min: -1, nIncorrectPoints: 0/213
Solid-to-fluid point interpolation error (GGI): 1.27192e-16
Number of uncovered master faces: 0
Number of uncovered slave faces: 0

Time = 0.1, iteration: 1
Current fsi under-relaxation factor: 0.4
Creating accumulated fluid interface displacement
Maximal accumulated displacement of interface points: 0
GAMG:  Solving for cellMotionUx, Initial residual = 0, Final residual = 0, No Iterations 1
GAMG:  Solving for cellMotionUy, Initial residual = 0, Final residual = 0, No Iterations 1
GAMG:  Solving for cellMotionUz, Initial residual = 0, Final residual = 0, No Iterations 1
GAMG:  Solving for cellMotionUx, Initial residual = 0, Final residual = 0, No Iterations 1
GAMG:  Solving for cellMotionUy, Initial residual = 0, Final residual = 0, No Iterations 1
GAMG:  Solving for cellMotionUz, Initial residual = 0, Final residual = 0, No Iterations 1
Evolving flow model: consistentIcoFlow
Courant Number mean: 0.000130019 max: 0.0008 velocity magnitude: 0.0001
DILUPBiCG:  Solving for Ux, Initial residual = 1, Final residual = 3.99935e-07, No Iterations 4
DILUPBiCG:  Solving for Uy, Initial residual = 0.988361, Final residual = 8.95807e-07, No Iterations 4
DILUPBiCG:  Solving for Uz, Initial residual = 0.985989, Final residual = 9.63019e-07, No Iterations 4
GAMG:  Solving for p, Initial residual = 1, Final residual = 5.4853e-07, No Iterations 20
GAMG:  Solving for p, Initial residual = 4.22168e-09, Final residual = 2.10757e-09, No Iterations 1
time step continuity errors : sum local = 3.96755e-11, global = 2.92591e-12
GAMG:  Solving for p, Initial residual = 0.00457995, Final residual = 5.44585e-07, No Iterations 12
GAMG:  Solving for p, Initial residual = 1.00701e-06, Final residual = 4.98875e-07, No Iterations 1
time step continuity errors : sum local = 5.06995e-09, global = -2.03975e-10
GAMG:  Solving for p, Initial residual = 0.00230575, Final residual = 8.6432e-07, No Iterations 7
GAMG:  Solving for p, Initial residual = 8.68986e-07, Final residual = 4.20358e-07, No Iterations 1
time step continuity errors : sum local = 4.24321e-09, global = -3.48434e-10
Setting traction on solid patch
Total force (fluid) = (-0.366175 0.462335 -0.461358)
Total force (solid) = (0.366175 -0.462335 0.461358)
Evolving stress model
DICPCG: Solving for D, Initial residula = 1, Final residual = 0.0011778, No outer iterations = 153
Max relative residual = 1, Relative residual = 0.000991641, enforceLinear = 0
Current fsi relative residual norm: 1

Time = 0.1, iteration: 2
Current fsi under-relaxation factor: 0.4
Maximal accumulated displacement of interface points: 0.020521
GAMG:  Solving for cellMotionUx, Initial residual = 1, Final residual = 0.000526794, No Iterations 2
GAMG:  Solving for cellMotionUy, Initial residual = 1, Final residual = 0.000531575, No Iterations 2
GAMG:  Solving for cellMotionUz, Initial residual = 1, Final residual = 0.000285973, No Iterations 3
GAMG:  Solving for cellMotionUx, Initial residual = 0.000383802, Final residual = 6.20997e-07, No Iterations 6
GAMG:  Solving for cellMotionUy, Initial residual = 0.000274114, Final residual = 9.12478e-07, No Iterations 4
GAMG:  Solving for cellMotionUz, Initial residual = 0.000165125, Final residual = 7.26496e-07, No Iterations 5
Evolving flow model: consistentIcoFlow
Courant Number mean: 0.00207271 max: 0.0346041 velocity magnitude: 0.00487047
DILUPBiCG:  Solving for Ux, Initial residual = 0.0361278, Final residual = 8.52867e-07, No Iterations 3
DILUPBiCG:  Solving for Uy, Initial residual = 0.0128578, Final residual = 3.62582e-07, No Iterations 3
DILUPBiCG:  Solving for Uz, Initial residual = 0.00638584, Final residual = 1.4753e-07, No Iterations 3
GAMG:  Solving for p, Initial residual = 0.00700358, Final residual = 8.33788e-07, No Iterations 12
GAMG:  Solving for p, Initial residual = 1.91733e-05, Final residual = 3.89771e-07, No Iterations 3
time step continuity errors : sum local = 3.34442e-09, global = 1.26007e-11
GAMG:  Solving for p, Initial residual = 0.0036796, Final residual = 9.48515e-07, No Iterations 11
GAMG:  Solving for p, Initial residual = 7.99012e-06, Final residual = 5.16394e-07, No Iterations 2
time step continuity errors : sum local = 4.77595e-09, global = -2.45161e-10
GAMG:  Solving for p, Initial residual = 0.00069613, Final residual = 7.36731e-07, No Iterations 6
GAMG:  Solving for p, Initial residual = 9.57749e-07, Final residual = 3.57838e-07, No Iterations 1
time step continuity errors : sum local = 3.30793e-09, global = -1.4328e-10
Setting traction on solid patch
Total force (fluid) = (-0.168181 0.412013 -0.413562)
Total force (solid) = (0.167771 -0.412164 0.413708)
Evolving stress model
DICPCG: Solving for D, Initial residula = 0.0106098, Final residual = 3.30018e-05, No outer iterations = 439
Max relative residual = 0.0390674, Relative residual = 3.87758e-05, enforceLinear = 0
Current fsi relative residual norm: 0.0805478

Time = 0.1, iteration: 3
Current fsi under-relaxation factor (Aitken): 0.399551
Maximal accumulated displacement of interface points: 0.00205071
GAMG:  Solving for cellMotionUx, Initial residual = 0.773018, Final residual = 0.000414723, No Iterations 2
GAMG:  Solving for cellMotionUy, Initial residual = 0.858092, Final residual = 0.000471713, No Iterations 2
GAMG:  Solving for cellMotionUz, Initial residual = 0.400523, Final residual = 0.000114001, No Iterations 3
GAMG:  Solving for cellMotionUx, Initial residual = 0.00415123, Final residual = 2.5714e-06, No Iterations 7
GAMG:  Solving for cellMotionUy, Initial residual = 0.00146905, Final residual = 1.34052e-06, No Iterations 5
GAMG:  Solving for cellMotionUz, Initial residual = 0.000172616, Final residual = 7.50134e-07, No Iterations 5
Evolving flow model: consistentIcoFlow
Courant Number mean: 0.00191624 max: 0.0346039 velocity magnitude: 0.00487047
DILUPBiCG:  Solving for Ux, Initial residual = 0.00531202, Final residual = 8.32637e-08, No Iterations 3
DILUPBiCG:  Solving for Uy, Initial residual = 0.00702506, Final residual = 1.88464e-07, No Iterations 3
DILUPBiCG:  Solving for Uz, Initial residual = 0.00365705, Final residual = 8.63407e-08, No Iterations 3
GAMG:  Solving for p, Initial residual = 0.000643764, Final residual = 7.37926e-07, No Iterations 9
GAMG:  Solving for p, Initial residual = 2.4272e-06, Final residual = 8.3854e-07, No Iterations 1
time step continuity errors : sum local = 7.33253e-09, global = 4.74821e-10
GAMG:  Solving for p, Initial residual = 0.000294297, Final residual = 6.76503e-07, No Iterations 8
GAMG:  Solving for p, Initial residual = 1.29491e-06, Final residual = 4.53262e-07, No Iterations 1
time step continuity errors : sum local = 4.06942e-09, global = -6.73088e-12
GAMG:  Solving for p, Initial residual = 5.79838e-05, Final residual = 5.74405e-07, No Iterations 3
GAMG:  Solving for p, Initial residual = 5.75924e-07, Final residual = 2.74493e-07, No Iterations 1
time step continuity errors : sum local = 2.46465e-09, global = 3.03862e-10
Setting traction on solid patch
Total force (fluid) = (-0.162094 0.395749 -0.398426)
Total force (solid) = (0.161759 -0.395969 0.398637)
Evolving stress model
DICPCG: Solving for D, Initial residula = 0.00415537, Final residual = 1.25476e-05, No outer iterations = 225
Max relative residual = 0.0138802, Relative residual = 1.37131e-05, enforceLinear = 0
Current fsi relative residual norm: 0.0461096

Time = 0.1, iteration: 4
Current fsi under-relaxation factor (Aitken): 0.736197
Maximal accumulated displacement of interface points: 0.00202189
GAMG:  Solving for cellMotionUx, Initial residual = 0.4374, Final residual = 0.00024144, No Iterations 2
GAMG:  Solving for cellMotionUy, Initial residual = 0.0878336, Final residual = 4.97269e-05, No Iterations 2
GAMG:  Solving for cellMotionUz, Initial residual = 0.0177348, Final residual = 6.14823e-06, No Iterations 3
GAMG:  Solving for cellMotionUx, Initial residual = 0.000206632, Final residual = 8.98705e-07, No Iterations 5
GAMG:  Solving for cellMotionUy, Initial residual = 5.15156e-05, Final residual = 6.6374e-07, No Iterations 3
GAMG:  Solving for cellMotionUz, Initial residual = 6.22963e-06, Final residual = 6.08633e-07, No Iterations 2
Evolving flow model: consistentIcoFlow
Courant Number mean: 0.00195521 max: 0.0346045 velocity magnitude: 0.00487047
DILUPBiCG:  Solving for Ux, Initial residual = 0.00130614, Final residual = 3.96969e-08, No Iterations 3
DILUPBiCG:  Solving for Uy, Initial residual = 0.00313194, Final residual = 8.69776e-08, No Iterations 3
DILUPBiCG:  Solving for Uz, Initial residual = 0.0012899, Final residual = 3.87257e-08, No Iterations 3
GAMG:  Solving for p, Initial residual = 0.000535098, Final residual = 5.85229e-07, No Iterations 9
GAMG:  Solving for p, Initial residual = 2.22407e-06, Final residual = 7.95478e-07, No Iterations 1
time step continuity errors : sum local = 6.75909e-09, global = 3.87319e-10
GAMG:  Solving for p, Initial residual = 0.000289753, Final residual = 5.5591e-07, No Iterations 8
GAMG:  Solving for p, Initial residual = 1.17152e-06, Final residual = 4.14839e-07, No Iterations 1
time step continuity errors : sum local = 3.61848e-09, global = -4.48453e-11
GAMG:  Solving for p, Initial residual = 5.8463e-05, Final residual = 5.14029e-07, No Iterations 3
GAMG:  Solving for p, Initial residual = 5.15649e-07, Final residual = 2.39511e-07, No Iterations 1
time step continuity errors : sum local = 2.08936e-09, global = 2.4802e-10
Setting traction on solid patch
Total force (fluid) = (-0.160353 0.380276 -0.383907)
Total force (solid) = (0.160105 -0.38056 0.384177)
Evolving stress model
DICPCG: Solving for D, Initial residula = 0.00414255, Final residual = 1.23833e-05, No outer iterations = 149
Max relative residual = 0.0133689, Relative residual = 1.32417e-05, enforceLinear = 0
Current fsi relative residual norm: 0.00688351

Time = 0.1, iteration: 5
Current fsi under-relaxation factor (Aitken): 0.848498
Maximal accumulated displacement of interface points: 0.000340909
GAMG:  Solving for cellMotionUx, Initial residual = 0.596229, Final residual = 0.000491925, No Iterations 2
GAMG:  Solving for cellMotionUy, Initial residual = 0.848717, Final residual = 0.000443112, No Iterations 2
GAMG:  Solving for cellMotionUz, Initial residual = 0.787055, Final residual = 0.000227112, No Iterations 3
GAMG:  Solving for cellMotionUx, Initial residual = 0.00146548, Final residual = 8.12139e-07, No Iterations 7
GAMG:  Solving for cellMotionUy, Initial residual = 0.00272953, Final residual = 8.91257e-07, No Iterations 6
GAMG:  Solving for cellMotionUz, Initial residual = 0.000998203, Final residual = 5.95834e-07, No Iterations 7
Evolving flow model: consistentIcoFlow
Courant Number mean: 0.00191385 max: 0.0346047 velocity magnitude: 0.00487047
DILUPBiCG:  Solving for Ux, Initial residual = 0.000879281, Final residual = 8.05147e-07, No Iterations 2
DILUPBiCG:  Solving for Uy, Initial residual = 0.000617383, Final residual = 5.76878e-07, No Iterations 2
DILUPBiCG:  Solving for Uz, Initial residual = 0.000313663, Final residual = 2.95159e-07, No Iterations 2
GAMG:  Solving for p, Initial residual = 0.000107112, Final residual = 6.30594e-07, No Iterations 6
GAMG:  Solving for p, Initial residual = 8.23105e-07, Final residual = 3.47785e-07, No Iterations 1
time step continuity errors : sum local = 3.00687e-09, global = -6.62699e-11
GAMG:  Solving for p, Initial residual = 5.25116e-05, Final residual = 7.78538e-07, No Iterations 5
GAMG:  Solving for p, Initial residual = 8.19769e-07, Final residual = 3.18503e-07, No Iterations 1
time step continuity errors : sum local = 2.76537e-09, global = -1.9939e-10
GAMG:  Solving for p, Initial residual = 1.02852e-05, Final residual = 3.77144e-07, No Iterations 2
GAMG:  Solving for p, Initial residual = 3.77444e-07, Final residual = 1.30571e-07, No Iterations 1
time step continuity errors : sum local = 1.13369e-09, global = -1.71542e-10
Setting traction on solid patch
Total force (fluid) = (-0.161005 0.377972 -0.381594)
Total force (solid) = (0.160772 -0.378269 0.381874)
Evolving stress model
DICPCG: Solving for D, Initial residula = 0.000684491, Final residual = 1.83049e-06, No outer iterations = 295
Max relative residual = 0.0020348, Relative residual = 2.02585e-06, enforceLinear = 0
Current fsi relative residual norm: 0.00273301

Time = 0.1, iteration: 6
Current fsi under-relaxation factor (Aitken): 0.630487
Maximal accumulated displacement of interface points: 8.96412e-05
GAMG:  Solving for cellMotionUx, Initial residual = 0.735255, Final residual = 0.000476063, No Iterations 2
GAMG:  Solving for cellMotionUy, Initial residual = 0.843372, Final residual = 0.000523147, No Iterations 2
GAMG:  Solving for cellMotionUz, Initial residual = 0.835542, Final residual = 0.000228325, No Iterations 3
GAMG:  Solving for cellMotionUx, Initial residual = 0.0015131, Final residual = 9.42876e-07, No Iterations 7
GAMG:  Solving for cellMotionUy, Initial residual = 0.00145545, Final residual = 9.55498e-07, No Iterations 5
GAMG:  Solving for cellMotionUz, Initial residual = 0.00317548, Final residual = 1.91248e-06, No Iterations 7
Evolving flow model: consistentIcoFlow
Courant Number mean: 0.00190092 max: 0.0346046 velocity magnitude: 0.00487047
DILUPBiCG:  Solving for Ux, Initial residual = 0.000158111, Final residual = 3.57294e-07, No Iterations 2
DILUPBiCG:  Solving for Uy, Initial residual = 0.000101876, Final residual = 1.15158e-07, No Iterations 2
DILUPBiCG:  Solving for Uz, Initial residual = 3.81544e-05, Final residual = 5.04173e-08, No Iterations 2
GAMG:  Solving for p, Initial residual = 2.79399e-05, Final residual = 7.04971e-07, No Iterations 5
GAMG:  Solving for p, Initial residual = 7.13606e-07, Final residual = 3.29467e-07, No Iterations 1
time step continuity errors : sum local = 2.85973e-09, global = 8.83685e-11
GAMG:  Solving for p, Initial residual = 1.28528e-05, Final residual = 7.03617e-07, No Iterations 4
GAMG:  Solving for p, Initial residual = 7.09812e-07, Final residual = 2.94918e-07, No Iterations 1
time step continuity errors : sum local = 2.5602e-09, global = -1.33861e-10
GAMG:  Solving for p, Initial residual = 2.82621e-06, Final residual = 4.55447e-07, No Iterations 1
GAMG:  Solving for p, Initial residual = 4.55524e-07, Final residual = 2.08621e-07, No Iterations 1
time step continuity errors : sum local = 1.81105e-09, global = -7.47061e-11
Setting traction on solid patch
Total force (fluid) = (-0.160301 0.377897 -0.3815)
Total force (solid) = (0.160065 -0.378194 0.381781)
Evolving stress model
DICPCG: Solving for D, Initial residula = 5.37614e-05, Final residual = 2.86619e-07, No outer iterations = 396
Max relative residual = 0.000328143, Relative residual = 3.26468e-07, enforceLinear = 0
Current fsi relative residual norm: 0.00144444

Time = 0.1, iteration: 7
Current fsi under-relaxation factor (Aitken): 0.414177
Maximal accumulated displacement of interface points: 3.40253e-05
GAMG:  Solving for cellMotionUx, Initial residual = 0.773109, Final residual = 0.000499343, No Iterations 2
GAMG:  Solving for cellMotionUy, Initial residual = 0.993668, Final residual = 0.000623314, No Iterations 2
GAMG:  Solving for cellMotionUz, Initial residual = 0.774669, Final residual = 0.000156099, No Iterations 3
GAMG:  Solving for cellMotionUx, Initial residual = 0.00149302, Final residual = 8.3443e-07, No Iterations 7
GAMG:  Solving for cellMotionUy, Initial residual = 0.0014277, Final residual = 1.28573e-06, No Iterations 5
GAMG:  Solving for cellMotionUz, Initial residual = 0.000526206, Final residual = 7.4836e-07, No Iterations 6
Evolving flow model: consistentIcoFlow
Courant Number mean: 0.00190167 max: 0.0346046 velocity magnitude: 0.00487047
DILUPBiCG:  Solving for Ux, Initial residual = 2.65326e-05, Final residual = 8.73966e-07, No Iterations 1
DILUPBiCG:  Solving for Uy, Initial residual = 2.7914e-05, Final residual = 1.33918e-07, No Iterations 2
DILUPBiCG:  Solving for Uz, Initial residual = 1.03415e-05, Final residual = 3.0465e-07, No Iterations 1
GAMG:  Solving for p, Initial residual = 1.04121e-05, Final residual = 6.72403e-07, No Iterations 4
GAMG:  Solving for p, Initial residual = 6.78234e-07, Final residual = 3.0425e-07, No Iterations 1
time step continuity errors : sum local = 2.64135e-09, global = -1.21577e-10
GAMG:  Solving for p, Initial residual = 5.19805e-06, Final residual = 6.18808e-07, No Iterations 3
GAMG:  Solving for p, Initial residual = 6.18652e-07, Final residual = 2.88868e-07, No Iterations 1
time step continuity errors : sum local = 2.50779e-09, global = 8.53168e-11
GAMG:  Solving for p, Initial residual = 1.27378e-06, Final residual = 2.91022e-07, No Iterations 1
GAMG:  Solving for p, Initial residual = 2.91046e-07, Final residual = 1.34905e-07, No Iterations 1
time step continuity errors : sum local = 1.17116e-09, global = 4.31018e-11
Setting traction on solid patch
Total force (fluid) = (-0.16058 0.377922 -0.381522)
Total force (solid) = (0.160344 -0.378219 0.381802)
Evolving stress model
DICPCG: Solving for D, Initial residula = 2.13476e-05, Final residual = 1.08497e-07, No outer iterations = 394
Max relative residual = 0.000123939, Relative residual = 1.23081e-07, enforceLinear = 0
Current fsi relative residual norm: 0.000119142

Time = 0.1, iteration: 8
Current fsi under-relaxation factor (Aitken): 0.39109
Maximal accumulated displacement of interface points: 2.27992e-06
GAMG:  Solving for cellMotionUx, Initial residual = 0.771986, Final residual = 0.000427394, No Iterations 2
GAMG:  Solving for cellMotionUy, Initial residual = 0.965154, Final residual = 0.000547336, No Iterations 2
GAMG:  Solving for cellMotionUz, Initial residual = 0.491955, Final residual = 0.000140256, No Iterations 3
GAMG:  Solving for cellMotionUx, Initial residual = 0.00353964, Final residual = 2.16358e-06, No Iterations 7
GAMG:  Solving for cellMotionUy, Initial residual = 0.00241412, Final residual = 2.03472e-06, No Iterations 5
GAMG:  Solving for cellMotionUz, Initial residual = 0.000212552, Final residual = 8.0234e-07, No Iterations 5
Evolving flow model: consistentIcoFlow
Courant Number mean: 0.00190156 max: 0.0346046 velocity magnitude: 0.00487047
DILUPBiCG:  Solving for Ux, Initial residual = 7.01491e-06, Final residual = 1.97572e-07, No Iterations 1
DILUPBiCG:  Solving for Uy, Initial residual = 6.98248e-06, Final residual = 2.44405e-07, No Iterations 1
DILUPBiCG:  Solving for Uz, Initial residual = 4.32553e-06, Final residual = 1.46466e-07, No Iterations 1
GAMG:  Solving for p, Initial residual = 1.06784e-06, Final residual = 3.90735e-07, No Iterations 1
GAMG:  Solving for p, Initial residual = 3.90806e-07, Final residual = 1.66059e-07, No Iterations 1
time step continuity errors : sum local = 1.44161e-09, global = 2.80118e-12
GAMG:  Solving for p, Initial residual = 4.19448e-07, Final residual = 1.33328e-07, No Iterations 1
GAMG:  Solving for p, Initial residual = 1.33334e-07, Final residual = 3.40403e-08, No Iterations 1
time step continuity errors : sum local = 2.95513e-10, global = -3.44883e-11
GAMG:  Solving for p, Initial residual = 1.23041e-07, Final residual = 4.16096e-08, No Iterations 1
GAMG:  Solving for p, Initial residual = 4.16115e-08, Final residual = 1.87465e-08, No Iterations 1
time step continuity errors : sum local = 1.62743e-10, global = -3.42133e-12
Setting traction on solid patch
Total force (fluid) = (-0.160569 0.37792 -0.381518)
Total force (solid) = (0.160333 -0.378217 0.381799)
Evolving stress model
DICPCG: Solving for D, Initial residula = 1.68181e-06, Final residual = 9.4412e-08, No outer iterations = 170
Max relative residual = 6.27119e-06, Relative residual = 9.99221e-08, enforceLinear = 0
Current fsi relative residual norm: 4.87329e-05

Time = 0.1, iteration: 9
Current fsi under-relaxation factor (Aitken): 0.544168
Maximal accumulated displacement of interface points: 1.3776e-06
GAMG:  Solving for cellMotionUx, Initial residual = 0.43674, Final residual = 0.000311021, No Iterations 2
GAMG:  Solving for cellMotionUy, Initial residual = 0.274172, Final residual = 0.000192158, No Iterations 2
GAMG:  Solving for cellMotionUz, Initial residual = 0.105666, Final residual = 2.88012e-05, No Iterations 3
GAMG:  Solving for cellMotionUx, Initial residual = 0.000507579, Final residual = 7.07038e-07, No Iterations 6
GAMG:  Solving for cellMotionUy, Initial residual = 0.000245479, Final residual = 3.07376e-07, No Iterations 5
GAMG:  Solving for cellMotionUz, Initial residual = 3.23522e-05, Final residual = 3.67284e-07, No Iterations 4
Evolving flow model: consistentIcoFlow
Courant Number mean: 0.00190151 max: 0.0346046 velocity magnitude: 0.00487047
DILUPBiCG:  Solving for Ux, Initial residual = 1.02902e-06, Final residual = 3.28266e-08, No Iterations 1
DILUPBiCG:  Solving for Uy, Initial residual = 2.19264e-06, Final residual = 8.28377e-08, No Iterations 1
DILUPBiCG:  Solving for Uz, Initial residual = 7.83925e-07, Final residual = 4.19812e-08, No Iterations 1
GAMG:  Solving for p, Initial residual = 4.09698e-07, Final residual = 2.29845e-07, No Iterations 1
GAMG:  Solving for p, Initial residual = 2.29843e-07, Final residual = 7.62812e-08, No Iterations 1
time step continuity errors : sum local = 6.62214e-10, global = 1.71918e-11
GAMG:  Solving for p, Initial residual = 2.20149e-07, Final residual = 7.93715e-08, No Iterations 1
GAMG:  Solving for p, Initial residual = 7.93643e-08, Final residual = 2.00975e-08, No Iterations 1
time step continuity errors : sum local = 1.7447e-10, global = -9.99504e-12
GAMG:  Solving for p, Initial residual = 6.70086e-08, Final residual = 2.10652e-08, No Iterations 1
GAMG:  Solving for p, Initial residual = 2.1068e-08, Final residual = 8.13327e-09, No Iterations 1
time step continuity errors : sum local = 7.06068e-11, global = -1.79064e-12
Setting traction on solid patch
Total force (fluid) = (-0.16057 0.37792 -0.381516)
Total force (solid) = (0.160334 -0.378217 0.381797)
Evolving stress model
DICPCG: Solving for D, Initial residula = 1.06367e-06, Final residual = 8.91845e-08, No outer iterations = 68
Max relative residual = 1.15843e-06, Relative residual = 9.92055e-08, enforceLinear = 0
Current fsi relative residual norm: 1.90349e-05

Time = 0.1, iteration: 10
Current fsi under-relaxation factor (Aitken): 0.890225
Maximal accumulated displacement of interface points: 8.81359e-07
GAMG:  Solving for cellMotionUx, Initial residual = 0.224937, Final residual = 5.71749e-05, No Iterations 3
GAMG:  Solving for cellMotionUy, Initial residual = 0.243606, Final residual = 0.000215708, No Iterations 2
GAMG:  Solving for cellMotionUz, Initial residual = 0.180291, Final residual = 5.35587e-05, No Iterations 3
GAMG:  Solving for cellMotionUx, Initial residual = 7.59217e-05, Final residual = 4.43694e-07, No Iterations 4
GAMG:  Solving for cellMotionUy, Initial residual = 0.000273719, Final residual = 5.83826e-07, No Iterations 5
GAMG:  Solving for cellMotionUz, Initial residual = 6.65866e-05, Final residual = 7.67999e-07, No Iterations 4
Evolving flow model: consistentIcoFlow
Courant Number mean: 0.00190148 max: 0.0346046 velocity magnitude: 0.00487047
DILUPBiCG:  Solving for Ux, Initial residual = 6.59502e-07, Final residual = 4.31151e-08, No Iterations 1
DILUPBiCG:  Solving for Uy, Initial residual = 1.42534e-06, Final residual = 5.3403e-08, No Iterations 1
DILUPBiCG:  Solving for Uz, Initial residual = 4.4916e-07, Final residual = 3.91426e-08, No Iterations 1
GAMG:  Solving for p, Initial residual = 2.59007e-07, Final residual = 1.51401e-07, No Iterations 1
GAMG:  Solving for p, Initial residual = 1.51404e-07, Final residual = 5.03395e-08, No Iterations 1
time step continuity errors : sum local = 4.37007e-10, global = 8.92308e-12
GAMG:  Solving for p, Initial residual = 1.44419e-07, Final residual = 5.21087e-08, No Iterations 1
GAMG:  Solving for p, Initial residual = 5.21074e-08, Final residual = 1.30992e-08, No Iterations 1
time step continuity errors : sum local = 1.13717e-10, global = -5.78384e-12
GAMG:  Solving for p, Initial residual = 4.37517e-08, Final residual = 1.377e-08, No Iterations 1
GAMG:  Solving for p, Initial residual = 1.37721e-08, Final residual = 5.41362e-09, No Iterations 1
time step continuity errors : sum local = 4.69967e-11, global = -1.42214e-12
Setting traction on solid patch
Total force (fluid) = (-0.160571 0.377919 -0.381514)
Total force (solid) = (0.160335 -0.378216 0.381795)
Evolving stress model
DICPCG: Solving for D, Initial residula = 7.08288e-07, Final residual = 1.20391e-07, No outer iterations = 24
Max relative residual = 7.41088e-07, Relative residual = 9.98124e-08, enforceLinear = 0
Current fsi relative residual norm: 7.76868e-07
Max sigmaCauchyEq = 21.5105
SigmaCauchyEq, max: 14.9039, avg: 3.68758, min: 0.386092
Max sigmaEq = 21.5495
SigmaEq, max: 14.8856, avg: 3.70498, min: 0.388
ExecutionTime = 8.07 s  ClockTime = 8 s

Seting inlet velocity
Umax = 0.0190983
forces output:
    forces(pressure, viscous)((0.158657 -0.380957 0.383247) (0.00215569 0.00311931 -0.00191372))
    moment(pressure, viscous)((-0.0382148 -0.0149477 0.0025542) (0.000267199 -0.000439616 0.00024135))

Time = 0.2


Time = 0.2, iteration: 1
Current fsi under-relaxation factor: 0.4
Maximal accumulated displacement of interface points: 0
GAMG:  Solving for cellMotionUx, Initial residual = 0.866999, Final residual = 0.000209951, No Iterations 3
GAMG:  Solving for cellMotionUy, Initial residual = 0.840097, Final residual = 0.000740584, No Iterations 2
GAMG:  Solving for cellMotionUz, Initial residual = 0.703936, Final residual = 0.000229264, No Iterations 3
GAMG:  Solving for cellMotionUx, Initial residual = 0.0073919, Final residual = 5.00743e-06, No Iterations 6
GAMG:  Solving for cellMotionUy, Initial residual = 0.0532514, Final residual = 4.03729e-05, No Iterations 6
GAMG:  Solving for cellMotionUz, Initial residual = 0.00590703, Final residual = 3.39737e-06, No Iterations 7
Evolving flow model: consistentIcoFlow
Courant Number mean: 0.00282351 max: 0.0346046 velocity magnitude: 0.00487047
DILUPBiCG:  Solving for Ux, Initial residual = 0.876668, Final residual = 1.47007e-07, No Iterations 4
DILUPBiCG:  Solving for Uy, Initial residual = 0.303542, Final residual = 8.96468e-08, No Iterations 4
DILUPBiCG:  Solving for Uz, Initial residual = 0.270175, Final residual = 5.71723e-08, No Iterations 4
GAMG:  Solving for p, Initial residual = 0.046618, Final residual = 8.59309e-07, No Iterations 15
GAMG:  Solving for p, Initial residual = 3.25743e-05, Final residual = 4.50196e-07, No Iterations 4
time step continuity errors : sum local = 2.37818e-08, global = 5.76878e-10
GAMG:  Solving for p, Initial residual = 0.004133, Final residual = 4.79775e-07, No Iterations 12
GAMG:  Solving for p, Initial residual = 2.42115e-05, Final residual = 7.86804e-07, No Iterations 3
time step continuity errors : sum local = 2.55638e-08, global = 9.32475e-11
GAMG:  Solving for p, Initial residual = 0.00159475, Final residual = 6.85426e-07, No Iterations 7
GAMG:  Solving for p, Initial residual = 8.35026e-07, Final residual = 3.32492e-07, No Iterations 1
time step continuity errors : sum local = 1.07497e-08, global = -7.64523e-10
Setting traction on solid patch
Total force (fluid) = (-1.29219 1.4968 -1.48753)
Total force (solid) = (1.29174 -1.49798 1.48863)
Evolving stress model
DICPCG: Solving for D, Initial residula = 0.267879, Final residual = 0.00106884, No outer iterations = 172
Max relative residual = 1, Relative residual = 0.000989839, enforceLinear = 0
Current fsi relative residual norm: 1

Time = 0.2, iteration: 2
Current fsi under-relaxation factor: 0.4
Maximal accumulated displacement of interface points: 0.0822785
GAMG:  Solving for cellMotionUx, Initial residual = 1, Final residual = 0.000553767, No Iterations 2
GAMG:  Solving for cellMotionUy, Initial residual = 1, Final residual = 0.000549847, No Iterations 2
GAMG:  Solving for cellMotionUz, Initial residual = 1, Final residual = 0.000291705, No Iterations 3
GAMG:  Solving for cellMotionUx, Initial residual = 0.000398874, Final residual = 6.4703e-07, No Iterations 6
GAMG:  Solving for cellMotionUy, Initial residual = 0.00028066, Final residual = 8.67188e-07, No Iterations 4
GAMG:  Solving for cellMotionUz, Initial residual = 0.000163985, Final residual = 7.12582e-07, No Iterations 5
Evolving flow model: consistentIcoFlow
Courant Number mean: 0.00793863 max: 0.134573 velocity magnitude: 0.0190051
DILUPBiCG:  Solving for Ux, Initial residual = 0.0234701, Final residual = 6.15758e-07, No Iterations 3
DILUPBiCG:  Solving for Uy, Initial residual = 0.0124748, Final residual = 3.52903e-07, No Iterations 3
DILUPBiCG:  Solving for Uz, Initial residual = 0.00565226, Final residual = 1.41143e-07, No Iterations 3
GAMG:  Solving for p, Initial residual = 0.00787943, Final residual = 9.7399e-07, No Iterations 12
GAMG:  Solving for p, Initial residual = 0.000107307, Final residual = 6.50302e-07, No Iterations 4
time step continuity errors : sum local = 1.80503e-08, global = -7.79083e-10
GAMG:  Solving for p, Initial residual = 0.00419635, Final residual = 5.2421e-07, No Iterations 12
GAMG:  Solving for p, Initial residual = 4.44138e-05, Final residual = 7.538e-07, No Iterations 3
time step continuity errors : sum local = 2.23454e-08, global = 9.69934e-10
GAMG:  Solving for p, Initial residual = 0.000801626, Final residual = 8.44565e-07, No Iterations 6
GAMG:  Solving for p, Initial residual = 2.50298e-06, Final residual = 5.2234e-07, No Iterations 1
time step continuity errors : sum local = 1.54735e-08, global = -1.05401e-09
Setting traction on solid patch
Total force (fluid) = (-0.55309 1.34915 -1.34606)
Total force (solid) = (0.54597 -1.3514 1.34825)
Evolving stress model
DICPCG: Solving for D, Initial residula = 0.00910822, Final residual = 2.46417e-05, No outer iterations = 517
Max relative residual = 0.0355885, Relative residual = 3.53454e-05, enforceLinear = 0
Current fsi relative residual norm: 0.0666519

Time = 0.2, iteration: 3
Current fsi under-relaxation factor (Aitken): 0.855478
Maximal accumulated displacement of interface points: 0.0120931
GAMG:  Solving for cellMotionUx, Initial residual = 0.775032, Final residual = 0.000443182, No Iterations 2
GAMG:  Solving for cellMotionUy, Initial residual = 0.898144, Final residual = 0.000517908, No Iterations 2
GAMG:  Solving for cellMotionUz, Initial residual = 0.151375, Final residual = 3.76398e-05, No Iterations 3
GAMG:  Solving for cellMotionUx, Initial residual = 0.00304314, Final residual = 1.87622e-06, No Iterations 7
GAMG:  Solving for cellMotionUy, Initial residual = 0.00132171, Final residual = 1.08868e-06, No Iterations 5
GAMG:  Solving for cellMotionUz, Initial residual = 3.77772e-05, Final residual = 3.80606e-07, No Iterations 4
Evolving flow model: consistentIcoFlow
Courant Number mean: 0.00782247 max: 0.134607 velocity magnitude: 0.0190051
DILUPBiCG:  Solving for Ux, Initial residual = 0.00391863, Final residual = 7.27671e-08, No Iterations 3
DILUPBiCG:  Solving for Uy, Initial residual = 0.00792604, Final residual = 2.26491e-07, No Iterations 3
DILUPBiCG:  Solving for Uz, Initial residual = 0.00377253, Final residual = 9.95313e-08, No Iterations 3
GAMG:  Solving for p, Initial residual = 0.00122168, Final residual = 5.92093e-07, No Iterations 9
GAMG:  Solving for p, Initial residual = 1.47663e-05, Final residual = 5.93973e-07, No Iterations 3
time step continuity errors : sum local = 1.62317e-08, global = 5.23657e-10
GAMG:  Solving for p, Initial residual = 0.00055678, Final residual = 6.25754e-07, No Iterations 8
GAMG:  Solving for p, Initial residual = 6.53537e-06, Final residual = 7.31805e-07, No Iterations 2
time step continuity errors : sum local = 2.07855e-08, global = -9.30343e-10
GAMG:  Solving for p, Initial residual = 0.000108807, Final residual = 7.97099e-07, No Iterations 3
GAMG:  Solving for p, Initial residual = 8.76286e-07, Final residual = 2.76852e-07, No Iterations 1
time step continuity errors : sum local = 7.86447e-09, global = 1.76554e-10
Setting traction on solid patch
Total force (fluid) = (-0.575907 1.2737 -1.27613)
Total force (solid) = (0.571094 -1.27697 1.27927)
Evolving stress model
DICPCG: Solving for D, Initial residula = 0.0049533, Final residual = 1.38683e-05, No outer iterations = 332
Max relative residual = 0.018315, Relative residual = 1.81449e-05, enforceLinear = 0
Current fsi relative residual norm: 0.0284177

Time = 0.2, iteration: 4
Current fsi under-relaxation factor (Aitken): 0.62501
Maximal accumulated displacement of interface points: 0.003754
GAMG:  Solving for cellMotionUx, Initial residual = 0.723467, Final residual = 0.000553214, No Iterations 2
GAMG:  Solving for cellMotionUy, Initial residual = 0.857328, Final residual = 0.000544964, No Iterations 2
GAMG:  Solving for cellMotionUz, Initial residual = 0.811574, Final residual = 0.000238039, No Iterations 3
GAMG:  Solving for cellMotionUx, Initial residual = 0.00148492, Final residual = 8.36272e-07, No Iterations 7
GAMG:  Solving for cellMotionUy, Initial residual = 0.00191646, Final residual = 1.79915e-06, No Iterations 5
GAMG:  Solving for cellMotionUz, Initial residual = 0.003616, Final residual = 2.15103e-06, No Iterations 7
Evolving flow model: consistentIcoFlow
Courant Number mean: 0.00737835 max: 0.134587 velocity magnitude: 0.0190051
DILUPBiCG:  Solving for Ux, Initial residual = 0.00124672, Final residual = 1.11486e-07, No Iterations 3
DILUPBiCG:  Solving for Uy, Initial residual = 0.000984964, Final residual = 9.00119e-07, No Iterations 2
DILUPBiCG:  Solving for Uz, Initial residual = 0.000302146, Final residual = 2.55293e-07, No Iterations 2
GAMG:  Solving for p, Initial residual = 0.000346575, Final residual = 8.61653e-07, No Iterations 8
GAMG:  Solving for p, Initial residual = 4.27093e-06, Final residual = 9.67392e-07, No Iterations 1
time step continuity errors : sum local = 2.74154e-08, global = 1.03886e-09
GAMG:  Solving for p, Initial residual = 0.000158486, Final residual = 8.13402e-07, No Iterations 7
GAMG:  Solving for p, Initial residual = 2.09889e-06, Final residual = 5.2186e-07, No Iterations 1
time step continuity errors : sum local = 1.48068e-08, global = -9.33593e-10
GAMG:  Solving for p, Initial residual = 3.30387e-05, Final residual = 5.39001e-07, No Iterations 3
GAMG:  Solving for p, Initial residual = 5.59062e-07, Final residual = 2.17509e-07, No Iterations 1
time step continuity errors : sum local = 6.17142e-09, global = -4.7478e-10
Setting traction on solid patch
Total force (fluid) = (-0.547411 1.27123 -1.27323)
Total force (solid) = (0.542168 -1.27452 1.27639)
Evolving stress model
DICPCG: Solving for D, Initial residula = 0.000459546, Final residual = 2.43487e-06, No outer iterations = 456
Max relative residual = 0.00336816, Relative residual = 3.35543e-06, enforceLinear = 0
Current fsi relative residual norm: 0.0175656

Time = 0.2, iteration: 5
Current fsi under-relaxation factor (Aitken): 0.386569
Maximal accumulated displacement of interface points: 0.00148369
GAMG:  Solving for cellMotionUx, Initial residual = 0.781152, Final residual = 0.000502676, No Iterations 2
GAMG:  Solving for cellMotionUy, Initial residual = 0.999128, Final residual = 0.000610377, No Iterations 2
GAMG:  Solving for cellMotionUz, Initial residual = 0.954147, Final residual = 0.000872635, No Iterations 2
GAMG:  Solving for cellMotionUx, Initial residual = 0.00144872, Final residual = 8.08733e-07, No Iterations 7
GAMG:  Solving for cellMotionUy, Initial residual = 0.00115965, Final residual = 9.83605e-07, No Iterations 5
GAMG:  Solving for cellMotionUz, Initial residual = 0.00240755, Final residual = 1.20446e-06, No Iterations 6
Evolving flow model: consistentIcoFlow
Courant Number mean: 0.00742085 max: 0.134594 velocity magnitude: 0.0190051
DILUPBiCG:  Solving for Ux, Initial residual = 0.000266037, Final residual = 2.73396e-07, No Iterations 2
DILUPBiCG:  Solving for Uy, Initial residual = 0.000335665, Final residual = 3.30375e-07, No Iterations 2
DILUPBiCG:  Solving for Uz, Initial residual = 0.000117891, Final residual = 9.91801e-08, No Iterations 2
GAMG:  Solving for p, Initial residual = 0.000135836, Final residual = 8.025e-07, No Iterations 7
GAMG:  Solving for p, Initial residual = 1.97733e-06, Final residual = 5.04674e-07, No Iterations 1
time step continuity errors : sum local = 1.43325e-08, global = -7.60031e-10
GAMG:  Solving for p, Initial residual = 6.45889e-05, Final residual = 7.64871e-07, No Iterations 6
GAMG:  Solving for p, Initial residual = 1.23115e-06, Final residual = 3.68303e-07, No Iterations 1
time step continuity errors : sum local = 1.04555e-08, global = 6.50282e-10
GAMG:  Solving for p, Initial residual = 1.35655e-05, Final residual = 5.55833e-07, No Iterations 2
GAMG:  Solving for p, Initial residual = 5.62567e-07, Final residual = 2.63982e-07, No Iterations 1
time step continuity errors : sum local = 7.49399e-09, global = 2.34908e-10
Setting traction on solid patch
Total force (fluid) = (-0.559168 1.27244 -1.2743)
Total force (solid) = (0.554073 -1.27575 1.27746)
Evolving stress model
DICPCG: Solving for D, Initial residula = 0.000199335, Final residual = 1.07581e-06, No outer iterations = 444
Max relative residual = 0.00146065, Relative residual = 1.45376e-06, enforceLinear = 0
Current fsi relative residual norm: 0.000654845

Time = 0.2, iteration: 6
Current fsi under-relaxation factor (Aitken): 0.375735
Maximal accumulated displacement of interface points: 4.82611e-05
GAMG:  Solving for cellMotionUx, Initial residual = 0.75254, Final residual = 0.000448075, No Iterations 2
GAMG:  Solving for cellMotionUy, Initial residual = 0.970061, Final residual = 0.000562304, No Iterations 2
GAMG:  Solving for cellMotionUz, Initial residual = 0.826613, Final residual = 0.000178503, No Iterations 3
GAMG:  Solving for cellMotionUx, Initial residual = 0.00384713, Final residual = 2.26799e-06, No Iterations 7
GAMG:  Solving for cellMotionUy, Initial residual = 0.0056658, Final residual = 4.78851e-06, No Iterations 5
GAMG:  Solving for cellMotionUz, Initial residual = 0.000483402, Final residual = 5.09184e-07, No Iterations 6
Evolving flow model: consistentIcoFlow
Courant Number mean: 0.00742029 max: 0.134594 velocity magnitude: 0.0190051
DILUPBiCG:  Solving for Ux, Initial residual = 5.66159e-05, Final residual = 2.31737e-07, No Iterations 2
DILUPBiCG:  Solving for Uy, Initial residual = 7.47911e-05, Final residual = 5.77565e-08, No Iterations 2
DILUPBiCG:  Solving for Uz, Initial residual = 4.57202e-05, Final residual = 3.28353e-08, No Iterations 2
GAMG:  Solving for p, Initial residual = 9.02722e-06, Final residual = 3.81032e-07, No Iterations 3
GAMG:  Solving for p, Initial residual = 3.94098e-07, Final residual = 1.79491e-07, No Iterations 1
time step continuity errors : sum local = 5.09508e-09, global = -3.60308e-12
GAMG:  Solving for p, Initial residual = 2.6215e-06, Final residual = 9.84204e-07, No Iterations 1
GAMG:  Solving for p, Initial residual = 9.83421e-07, Final residual = 4.4803e-07, No Iterations 1
time step continuity errors : sum local = 1.2718e-08, global = 3.21779e-10
GAMG:  Solving for p, Initial residual = 9.16127e-07, Final residual = 2.82483e-07, No Iterations 1
GAMG:  Solving for p, Initial residual = 2.82451e-07, Final residual = 1.11043e-07, No Iterations 1
time step continuity errors : sum local = 3.15217e-09, global = -2.40595e-10
Setting traction on solid patch
Total force (fluid) = (-0.558911 1.27243 -1.27424)
Total force (solid) = (0.553809 -1.27574 1.2774)
Evolving stress model
DICPCG: Solving for D, Initial residula = 5.7203e-06, Final residual = 7.43124e-08, No outer iterations = 350
Max relative residual = 3.5307e-05, Relative residual = 9.91415e-08, enforceLinear = 0
Current fsi relative residual norm: 0.000247775

Time = 0.2, iteration: 7
Current fsi under-relaxation factor (Aitken): 0.479666
Maximal accumulated displacement of interface points: 2.79997e-05
GAMG:  Solving for cellMotionUx, Initial residual = 0.499795, Final residual = 0.000369986, No Iterations 2
GAMG:  Solving for cellMotionUy, Initial residual = 0.342176, Final residual = 0.000253698, No Iterations 2
GAMG:  Solving for cellMotionUz, Initial residual = 0.146216, Final residual = 3.91717e-05, No Iterations 3
GAMG:  Solving for cellMotionUx, Initial residual = 0.000721175, Final residual = 9.73214e-07, No Iterations 6
GAMG:  Solving for cellMotionUy, Initial residual = 0.000329587, Final residual = 4.696e-07, No Iterations 5
GAMG:  Solving for cellMotionUz, Initial residual = 4.62951e-05, Final residual = 5.22728e-07, No Iterations 4
Evolving flow model: consistentIcoFlow
Courant Number mean: 0.00741946 max: 0.134594 velocity magnitude: 0.0190051
DILUPBiCG:  Solving for Ux, Initial residual = 4.83616e-06, Final residual = 1.65062e-07, No Iterations 1
DILUPBiCG:  Solving for Uy, Initial residual = 1.38001e-05, Final residual = 5.1623e-07, No Iterations 1
DILUPBiCG:  Solving for Uz, Initial residual = 4.21335e-06, Final residual = 2.41809e-07, No Iterations 1
GAMG:  Solving for p, Initial residual = 2.3286e-06, Final residual = 4.44162e-07, No Iterations 2
GAMG:  Solving for p, Initial residual = 4.48138e-07, Final residual = 1.54925e-07, No Iterations 1
time step continuity errors : sum local = 4.39774e-09, global = 3.81844e-10
GAMG:  Solving for p, Initial residual = 1.03557e-06, Final residual = 4.33345e-07, No Iterations 1
GAMG:  Solving for p, Initial residual = 4.32259e-07, Final residual = 1.66448e-07, No Iterations 1
time step continuity errors : sum local = 4.72484e-09, global = -7.37475e-11
GAMG:  Solving for p, Initial residual = 3.48769e-07, Final residual = 1.17205e-07, No Iterations 1
GAMG:  Solving for p, Initial residual = 1.17144e-07, Final residual = 4.20203e-08, No Iterations 1
time step continuity errors : sum local = 1.19281e-09, global = -1.18536e-12
Setting traction on solid patch
Total force (fluid) = (-0.558964 1.27245 -1.27422)
Total force (solid) = (0.553859 -1.27576 1.27738)
Evolving stress model
DICPCG: Solving for D, Initial residula = 2.57898e-06, Final residual = 9.03857e-08, No outer iterations = 179
Max relative residual = 5.41908e-06, Relative residual = 9.97329e-08, enforceLinear = 0
Current fsi relative residual norm: 0.000112242

Time = 0.2, iteration: 8
Current fsi under-relaxation factor (Aitken): 0.864464
Maximal accumulated displacement of interface points: 2.27189e-05
GAMG:  Solving for cellMotionUx, Initial residual = 0.137411, Final residual = 3.44743e-05, No Iterations 3
GAMG:  Solving for cellMotionUy, Initial residual = 0.119885, Final residual = 0.000104267, No Iterations 2
GAMG:  Solving for cellMotionUz, Initial residual = 0.10764, Final residual = 2.63166e-05, No Iterations 3
GAMG:  Solving for cellMotionUx, Initial residual = 3.78331e-05, Final residual = 5.52952e-07, No Iterations 4
GAMG:  Solving for cellMotionUy, Initial residual = 0.000114658, Final residual = 7.50187e-07, No Iterations 4
GAMG:  Solving for cellMotionUz, Initial residual = 2.94587e-05, Final residual = 8.91202e-07, No Iterations 3
Evolving flow model: consistentIcoFlow
Courant Number mean: 0.00741874 max: 0.134594 velocity magnitude: 0.0190051
DILUPBiCG:  Solving for Ux, Initial residual = 3.24576e-06, Final residual = 1.19726e-07, No Iterations 1
DILUPBiCG:  Solving for Uy, Initial residual = 9.88968e-06, Final residual = 3.85801e-07, No Iterations 1
DILUPBiCG:  Solving for Uz, Initial residual = 2.33962e-06, Final residual = 1.08205e-07, No Iterations 1
GAMG:  Solving for p, Initial residual = 1.82505e-06, Final residual = 9.36106e-07, No Iterations 1
GAMG:  Solving for p, Initial residual = 9.34678e-07, Final residual = 3.575e-07, No Iterations 1
time step continuity errors : sum local = 1.01481e-08, global = -2.1215e-10
GAMG:  Solving for p, Initial residual = 1.0333e-06, Final residual = 3.39489e-07, No Iterations 1
GAMG:  Solving for p, Initial residual = 3.38842e-07, Final residual = 9.12192e-08, No Iterations 1
time step continuity errors : sum local = 2.58934e-09, global = 3.97455e-11
GAMG:  Solving for p, Initial residual = 3.18178e-07, Final residual = 1.0387e-07, No Iterations 1
GAMG:  Solving for p, Initial residual = 1.03875e-07, Final residual = 3.73157e-08, No Iterations 1
time step continuity errors : sum local = 1.05925e-09, global = -4.13588e-11
Setting traction on solid patch
Total force (fluid) = (-0.558986 1.27246 -1.2742)
Total force (solid) = (0.553879 -1.27577 1.27737)
Evolving stress model
DICPCG: Solving for D, Initial residula = 2.44973e-06, Final residual = 7.25801e-08, No outer iterations = 192
Max relative residual = 3.98598e-06, Relative residual = 9.9844e-08, enforceLinear = 0
Current fsi relative residual norm: 1.05879e-05

Time = 0.2, iteration: 9
Current fsi under-relaxation factor (Aitken): 0.840776
Maximal accumulated displacement of interface points: 2.38124e-06
GAMG:  Solving for cellMotionUx, Initial residual = 0.773651, Final residual = 0.000200763, No Iterations 3
GAMG:  Solving for cellMotionUy, Initial residual = 0.834792, Final residual = 0.000769704, No Iterations 2
GAMG:  Solving for cellMotionUz, Initial residual = 0.716979, Final residual = 0.000237161, No Iterations 3
GAMG:  Solving for cellMotionUx, Initial residual = 0.00118855, Final residual = 1.0035e-06, No Iterations 6
GAMG:  Solving for cellMotionUy, Initial residual = 0.00630276, Final residual = 4.3994e-06, No Iterations 6
GAMG:  Solving for cellMotionUz, Initial residual = 0.00169232, Final residual = 9.85318e-07, No Iterations 7
Evolving flow model: consistentIcoFlow
Courant Number mean: 0.00741862 max: 0.134594 velocity magnitude: 0.0190051
DILUPBiCG:  Solving for Ux, Initial residual = 1.02016e-06, Final residual = 5.16267e-08, No Iterations 1
DILUPBiCG:  Solving for Uy, Initial residual = 1.91367e-06, Final residual = 1.03494e-07, No Iterations 1
DILUPBiCG:  Solving for Uz, Initial residual = 6.03877e-07, Final residual = 1.82739e-08, No Iterations 1
GAMG:  Solving for p, Initial residual = 2.16402e-07, Final residual = 8.48415e-08, No Iterations 1
GAMG:  Solving for p, Initial residual = 8.4823e-08, Final residual = 3.79109e-08, No Iterations 1
time step continuity errors : sum local = 1.07614e-09, global = 9.32455e-11
GAMG:  Solving for p, Initial residual = 1.01968e-07, Final residual = 2.99629e-08, No Iterations 1
GAMG:  Solving for p, Initial residual = 2.99622e-08, Final residual = 7.94078e-09, No Iterations 1
time step continuity errors : sum local = 2.25408e-10, global = -3.31052e-11
GAMG:  Solving for p, Initial residual = 3.04125e-08, Final residual = 1.02634e-08, No Iterations 1
GAMG:  Solving for p, Initial residual = 1.02538e-08, Final residual = 4.27046e-09, No Iterations 1
time step continuity errors : sum local = 1.21222e-10, global = -4.9425e-12
Setting traction on solid patch
Total force (fluid) = (-0.558993 1.27246 -1.2742)
Total force (solid) = (0.553887 -1.27577 1.27737)
Evolving stress model
DICPCG: Solving for D, Initial residula = 1.4499e-07, Final residual = 7.26257e-08, No outer iterations = 52
Max relative residual = 1.0569e-06, Relative residual = 9.94233e-08, enforceLinear = 0
Current fsi relative residual norm: 4.14219e-06

Time = 0.2, iteration: 10
Current fsi under-relaxation factor (Aitken): 0.647917
Maximal accumulated displacement of interface points: 5.17799e-07
GAMG:  Solving for cellMotionUx, Initial residual = 0.663561, Final residual = 0.000146755, No Iterations 3
GAMG:  Solving for cellMotionUy, Initial residual = 0.87795, Final residual = 0.000559765, No Iterations 2
GAMG:  Solving for cellMotionUz, Initial residual = 0.684007, Final residual = 0.000264191, No Iterations 3
GAMG:  Solving for cellMotionUx, Initial residual = 0.000477447, Final residual = 7.1413e-07, No Iterations 6
GAMG:  Solving for cellMotionUy, Initial residual = 0.00368309, Final residual = 1.09346e-06, No Iterations 6
GAMG:  Solving for cellMotionUz, Initial residual = 0.00229158, Final residual = 1.20494e-06, No Iterations 7
Evolving flow model: consistentIcoFlow
Courant Number mean: 0.00741859 max: 0.134594 velocity magnitude: 0.0190051
DILUPBiCG:  Solving for Ux, Initial residual = 1.49595e-07, Final residual = 7.99648e-09, No Iterations 1
DILUPBiCG:  Solving for Uy, Initial residual = 1.70183e-07, Final residual = 5.64119e-09, No Iterations 1
DILUPBiCG:  Solving for Uz, Initial residual = 9.54945e-08, Final residual = 3.1484e-09, No Iterations 1
GAMG:  Solving for p, Initial residual = 6.71101e-08, Final residual = 4.98674e-08, No Iterations 1
GAMG:  Solving for p, Initial residual = 4.98085e-08, Final residual = 2.4657e-08, No Iterations 1
time step continuity errors : sum local = 6.99917e-10, global = 2.43548e-11
GAMG:  Solving for p, Initial residual = 4.75052e-08, Final residual = 1.60177e-08, No Iterations 1
GAMG:  Solving for p, Initial residual = 1.5988e-08, Final residual = 5.39198e-09, No Iterations 1
time step continuity errors : sum local = 1.53057e-10, global = 3.31998e-12
GAMG:  Solving for p, Initial residual = 1.84914e-08, Final residual = 6.59836e-09, No Iterations 1
GAMG:  Solving for p, Initial residual = 6.59533e-09, Final residual = 3.11418e-09, No Iterations 1
time step continuity errors : sum local = 8.83995e-11, global = -1.0887e-12
Setting traction on solid patch
Total force (fluid) = (-0.558988 1.27246 -1.2742)
Total force (solid) = (0.553881 -1.27577 1.27737)
Evolving stress model
DICPCG: Solving for D, Initial residula = 1.03956e-07, Final residual = 5.79109e-08, No outer iterations = 21
Max relative residual = 5.62655e-07, Relative residual = 9.671e-08, enforceLinear = 0
Current fsi relative residual norm: 6.00277e-07
Max sigmaCauchyEq = 88.9136
SigmaCauchyEq, max: 60.0812, avg: 15.6237, min: 0.990016
Max sigmaEq = 89.1751
SigmaEq, max: 59.5953, avg: 15.883, min: 1.00655
ExecutionTime = 16.52 s  ClockTime = 17 s

Seting inlet velocity
Umax = 0.0412215
forces output:
    forces(pressure, viscous)((0.549369 -1.2802 1.27849) (0.0107362 0.00794329 -0.00471792))
    moment(pressure, viscous)((-0.128408 -0.0523702 0.00846084) (0.000680815 -0.00207332 0.000845187))

Time = 0.3


Time = 0.3, iteration: 1
Current fsi under-relaxation factor: 0.4
Maximal accumulated displacement of interface points: 0
GAMG:  Solving for cellMotionUx, Initial residual = 0.814281, Final residual = 0.000350502, No Iterations 2
GAMG:  Solving for cellMotionUy, Initial residual = 0.941017, Final residual = 0.000687078, No Iterations 2
GAMG:  Solving for cellMotionUz, Initial residual = 0.749549, Final residual = 0.000319955, No Iterations 3
GAMG:  Solving for cellMotionUx, Initial residual = 0.00372341, Final residual = 2.43647e-06, No Iterations 7
GAMG:  Solving for cellMotionUy, Initial residual = 0.0315978, Final residual = 1.36981e-05, No Iterations 5
GAMG:  Solving for cellMotionUz, Initial residual = 0.0118041, Final residual = 5.68496e-06, No Iterations 7
Evolving flow model: consistentIcoFlow
Courant Number mean: 0.0114483 max: 0.134594 velocity magnitude: 0.0190051
DILUPBiCG:  Solving for Ux, Initial residual = 0.829002, Final residual = 1.39898e-07, No Iterations 4
DILUPBiCG:  Solving for Uy, Initial residual = 0.249402, Final residual = 8.32957e-08, No Iterations 4
DILUPBiCG:  Solving for Uz, Initial residual = 0.218694, Final residual = 5.13718e-08, No Iterations 4
GAMG:  Solving for p, Initial residual = 0.022687, Final residual = 7.69429e-07, No Iterations 14
GAMG:  Solving for p, Initial residual = 0.000132468, Final residual = 6.81027e-07, No Iterations 5
time step continuity errors : sum local = 5.00158e-08, global = 2.13278e-09
GAMG:  Solving for p, Initial residual = 0.00435891, Final residual = 5.03577e-07, No Iterations 12
GAMG:  Solving for p, Initial residual = 8.34413e-05, Final residual = 4.48934e-07, No Iterations 5
time step continuity errors : sum local = 2.36748e-08, global = -9.55239e-10
GAMG:  Solving for p, Initial residual = 0.00130097, Final residual = 7.12791e-07, No Iterations 7
GAMG:  Solving for p, Initial residual = 2.38738e-06, Final residual = 4.31846e-07, No Iterations 1
time step continuity errors : sum local = 2.27025e-08, global = 2.47838e-09
Setting traction on solid patch
Total force (fluid) = (-2.45445 2.46584 -2.4304)
Total force (solid) = (2.44811 -2.47226 2.43646)
Evolving stress model
DICPCG: Solving for D, Initial residula = 0.0841329, Final residual = 0.000960926, No outer iterations = 193
Max relative residual = 1, Relative residual = 0.000994394, enforceLinear = 0
Current fsi relative residual norm: 1

Time = 0.3, iteration: 2
Current fsi under-relaxation factor: 0.4
Maximal accumulated displacement of interface points: 0.175887
GAMG:  Solving for cellMotionUx, Initial residual = 1, Final residual = 0.000584332, No Iterations 2
GAMG:  Solving for cellMotionUy, Initial residual = 1, Final residual = 0.000570643, No Iterations 2
GAMG:  Solving for cellMotionUz, Initial residual = 1, Final residual = 0.000293223, No Iterations 3
GAMG:  Solving for cellMotionUx, Initial residual = 0.000414925, Final residual = 6.68466e-07, No Iterations 6
GAMG:  Solving for cellMotionUy, Initial residual = 0.000287607, Final residual = 8.48721e-07, No Iterations 4
GAMG:  Solving for cellMotionUz, Initial residual = 0.000153914, Final residual = 6.41134e-07, No Iterations 5
Evolving flow model: consistentIcoFlow
Courant Number mean: 0.0172215 max: 0.288462 velocity magnitude: 0.0410204
DILUPBiCG:  Solving for Ux, Initial residual = 0.0148877, Final residual = 4.11911e-07, No Iterations 3
DILUPBiCG:  Solving for Uy, Initial residual = 0.0134973, Final residual = 3.53285e-07, No Iterations 3
DILUPBiCG:  Solving for Uz, Initial residual = 0.00579626, Final residual = 1.98728e-07, No Iterations 3
GAMG:  Solving for p, Initial residual = 0.00968887, Final residual = 5.78748e-07, No Iterations 13
GAMG:  Solving for p, Initial residual = 0.000353879, Final residual = 8.12171e-07, No Iterations 5
time step continuity errors : sum local = 3.67492e-08, global = -2.02432e-09
GAMG:  Solving for p, Initial residual = 0.00518525, Final residual = 6.41524e-07, No Iterations 12
GAMG:  Solving for p, Initial residual = 0.000147766, Final residual = 8.45388e-07, No Iterations 4
time step continuity errors : sum local = 4.061e-08, global = 2.31251e-09
GAMG:  Solving for p, Initial residual = 0.000991079, Final residual = 5.07874e-07, No Iterations 7
GAMG:  Solving for p, Initial residual = 6.91106e-06, Final residual = 8.63176e-07, No Iterations 1
time step continuity errors : sum local = 4.14228e-08, global = -7.82964e-10
Setting traction on solid patch
Total force (fluid) = (-0.974402 2.23384 -2.21103)
Total force (solid) = (0.940286 -2.24157 2.21901)
Evolving stress model
DICPCG: Solving for D, Initial residula = 0.00792102, Final residual = 2.1741e-05, No outer iterations = 615
Max relative residual = 0.0330028, Relative residual = 3.29125e-05, enforceLinear = 0
Current fsi relative residual norm: 0.0974378

Time = 0.3, iteration: 3
Current fsi under-relaxation factor (Aitken): 0.592652
Maximal accumulated displacement of interface points: 0.0265898
GAMG:  Solving for cellMotionUx, Initial residual = 0.770563, Final residual = 0.000459917, No Iterations 2
GAMG:  Solving for cellMotionUy, Initial residual = 0.97546, Final residual = 0.000564456, No Iterations 2
GAMG:  Solving for cellMotionUz, Initial residual = 0.491794, Final residual = 0.000108574, No Iterations 3
GAMG:  Solving for cellMotionUx, Initial residual = 0.00268496, Final residual = 1.62622e-06, No Iterations 7
GAMG:  Solving for cellMotionUy, Initial residual = 0.00192242, Final residual = 1.67924e-06, No Iterations 5
GAMG:  Solving for cellMotionUz, Initial residual = 0.000149409, Final residual = 5.01193e-07, No Iterations 5
Evolving flow model: consistentIcoFlow
Courant Number mean: 0.0170231 max: 0.288731 velocity magnitude: 0.0410204
DILUPBiCG:  Solving for Ux, Initial residual = 0.00316837, Final residual = 6.18713e-08, No Iterations 3
DILUPBiCG:  Solving for Uy, Initial residual = 0.0058733, Final residual = 1.39091e-07, No Iterations 3
DILUPBiCG:  Solving for Uz, Initial residual = 0.00297373, Final residual = 6.26544e-08, No Iterations 3
GAMG:  Solving for p, Initial residual = 0.00157277, Final residual = 6.03997e-07, No Iterations 10
GAMG:  Solving for p, Initial residual = 4.06465e-05, Final residual = 9.88456e-07, No Iterations 3
time step continuity errors : sum local = 4.64763e-08, global = 1.10875e-09
GAMG:  Solving for p, Initial residual = 0.000661297, Final residual = 6.06087e-07, No Iterations 9
GAMG:  Solving for p, Initial residual = 1.78607e-05, Final residual = 3.69953e-07, No Iterations 3
time step continuity errors : sum local = 1.75645e-08, global = -8.95836e-10
GAMG:  Solving for p, Initial residual = 0.000139024, Final residual = 6.01886e-07, No Iterations 4
GAMG:  Solving for p, Initial residual = 1.19532e-06, Final residual = 2.93285e-07, No Iterations 1
time step continuity errors : sum local = 1.39254e-08, global = -8.29729e-12
Setting traction on solid patch
Total force (fluid) = (-1.14138 2.20555 -2.18419)
Total force (solid) = (1.11456 -2.21432 2.19303)
Evolving stress model
DICPCG: Solving for D, Initial residula = 0.00122356, Final residual = 1.04888e-05, No outer iterations = 494
Max relative residual = 0.0129133, Relative residual = 1.28579e-05, enforceLinear = 0
Current fsi relative residual norm: 0.0569103

Time = 0.3, iteration: 4
Current fsi under-relaxation factor (Aitken): 0.376605
Maximal accumulated displacement of interface points: 0.00962499
GAMG:  Solving for cellMotionUx, Initial residual = 0.768311, Final residual = 0.000526016, No Iterations 2
GAMG:  Solving for cellMotionUy, Initial residual = 0.962665, Final residual = 0.000617558, No Iterations 2
GAMG:  Solving for cellMotionUz, Initial residual = 0.701521, Final residual = 0.00020898, No Iterations 3
GAMG:  Solving for cellMotionUx, Initial residual = 0.00153227, Final residual = 8.33955e-07, No Iterations 7
GAMG:  Solving for cellMotionUy, Initial residual = 0.00124535, Final residual = 1.13533e-06, No Iterations 5
GAMG:  Solving for cellMotionUz, Initial residual = 0.000666998, Final residual = 3.97839e-07, No Iterations 7
Evolving flow model: consistentIcoFlow
Courant Number mean: 0.0165086 max: 0.288624 velocity magnitude: 0.0410204
DILUPBiCG:  Solving for Ux, Initial residual = 0.000827424, Final residual = 2.43747e-08, No Iterations 3
DILUPBiCG:  Solving for Uy, Initial residual = 0.00112626, Final residual = 3.11925e-08, No Iterations 3
DILUPBiCG:  Solving for Uz, Initial residual = 0.000425441, Final residual = 1.68876e-08, No Iterations 3
GAMG:  Solving for p, Initial residual = 0.000544233, Final residual = 6.29236e-07, No Iterations 9
GAMG:  Solving for p, Initial residual = 1.70763e-05, Final residual = 3.26562e-07, No Iterations 3
time step continuity errors : sum local = 1.53596e-08, global = -1.41839e-10
GAMG:  Solving for p, Initial residual = 0.000257666, Final residual = 6.30014e-07, No Iterations 8
GAMG:  Solving for p, Initial residual = 7.67812e-06, Final residual = 4.34247e-07, No Iterations 2
time step continuity errors : sum local = 2.0515e-08, global = -5.90886e-10
GAMG:  Solving for p, Initial residual = 5.30594e-05, Final residual = 7.42675e-07, No Iterations 3
GAMG:  Solving for p, Initial residual = 9.24954e-07, Final residual = 2.84769e-07, No Iterations 1
time step continuity errors : sum local = 1.34533e-08, global = -1.12116e-09
Setting traction on solid patch
Total force (fluid) = (-1.06316 2.18822 -2.16817)
Total force (solid) = (1.03503 -2.19714 2.17716)
Evolving stress model
DICPCG: Solving for D, Initial residula = 0.000650948, Final residual = 3.40521e-06, No outer iterations = 518
Max relative residual = 0.00452677, Relative residual = 4.49782e-06, enforceLinear = 0
Current fsi relative residual norm: 0.00614725

Time = 0.3, iteration: 5
Current fsi under-relaxation factor (Aitken): 0.347818
Maximal accumulated displacement of interface points: 0.000857732
GAMG:  Solving for cellMotionUx, Initial residual = 0.747257, Final residual = 0.000474199, No Iterations 2
GAMG:  Solving for cellMotionUy, Initial residual = 0.94906, Final residual = 0.000556758, No Iterations 2
GAMG:  Solving for cellMotionUz, Initial residual = 0.488072, Final residual = 0.000152809, No Iterations 3
GAMG:  Solving for cellMotionUx, Initial residual = 0.00322962, Final residual = 1.78754e-06, No Iterations 7
GAMG:  Solving for cellMotionUy, Initial residual = 0.00256334, Final residual = 2.33304e-06, No Iterations 5
GAMG:  Solving for cellMotionUz, Initial residual = 0.000238197, Final residual = 9.14841e-07, No Iterations 5
Evolving flow model: consistentIcoFlow
Courant Number mean: 0.0164907 max: 0.288631 velocity magnitude: 0.0410204
DILUPBiCG:  Solving for Ux, Initial residual = 0.00017163, Final residual = 1.4327e-07, No Iterations 2
DILUPBiCG:  Solving for Uy, Initial residual = 0.000317382, Final residual = 2.73456e-07, No Iterations 2
DILUPBiCG:  Solving for Uz, Initial residual = 0.000170807, Final residual = 1.46364e-07, No Iterations 2
GAMG:  Solving for p, Initial residual = 6.86624e-05, Final residual = 7.50235e-07, No Iterations 5
GAMG:  Solving for p, Initial residual = 2.03525e-06, Final residual = 6.53496e-07, No Iterations 1
time step continuity errors : sum local = 3.07895e-08, global = 1.87473e-09
GAMG:  Solving for p, Initial residual = 2.62799e-05, Final residual = 6.90161e-07, No Iterations 4
GAMG:  Solving for p, Initial residual = 1.21203e-06, Final residual = 4.00108e-07, No Iterations 1
time step continuity errors : sum local = 1.88751e-08, global = -4.81469e-10
GAMG:  Solving for p, Initial residual = 5.67217e-06, Final residual = 7.13579e-07, No Iterations 1
GAMG:  Solving for p, Initial residual = 7.14452e-07, Final residual = 2.41662e-07, No Iterations 1
time step continuity errors : sum local = 1.14005e-08, global = -1.81238e-10
Setting traction on solid patch
Total force (fluid) = (-1.06713 2.18409 -2.16419)
Total force (solid) = (1.0394 -2.19311 2.17327)
Evolving stress model
DICPCG: Solving for D, Initial residula = 0.000160192, Final residual = 3.7103e-07, No outer iterations = 451
Max relative residual = 0.000538105, Relative residual = 5.34515e-07, enforceLinear = 0
Current fsi relative residual norm: 0.00231083

Time = 0.3, iteration: 6
Current fsi under-relaxation factor (Aitken): 0.463543
Maximal accumulated displacement of interface points: 0.000593206
GAMG:  Solving for cellMotionUx, Initial residual = 0.656493, Final residual = 0.00043485, No Iterations 2
GAMG:  Solving for cellMotionUy, Initial residual = 0.316602, Final residual = 0.000206148, No Iterations 2
GAMG:  Solving for cellMotionUz, Initial residual = 0.137621, Final residual = 4.16001e-05, No Iterations 3
GAMG:  Solving for cellMotionUx, Initial residual = 0.00129754, Final residual = 7.75042e-07, No Iterations 7
GAMG:  Solving for cellMotionUy, Initial residual = 0.000237084, Final residual = 8.46252e-07, No Iterations 4
GAMG:  Solving for cellMotionUz, Initial residual = 4.67628e-05, Final residual = 5.68846e-07, No Iterations 4
Evolving flow model: consistentIcoFlow
Courant Number mean: 0.0164951 max: 0.288632 velocity magnitude: 0.0410204
DILUPBiCG:  Solving for Ux, Initial residual = 4.39494e-05, Final residual = 3.5043e-08, No Iterations 2
DILUPBiCG:  Solving for Uy, Initial residual = 0.000101113, Final residual = 1.08111e-07, No Iterations 2
DILUPBiCG:  Solving for Uz, Initial residual = 5.01517e-05, Final residual = 1.1764e-07, No Iterations 2
GAMG:  Solving for p, Initial residual = 2.34975e-05, Final residual = 9.61046e-07, No Iterations 4
GAMG:  Solving for p, Initial residual = 1.62324e-06, Final residual = 5.92643e-07, No Iterations 1
time step continuity errors : sum local = 2.78931e-08, global = -3.31758e-09
GAMG:  Solving for p, Initial residual = 1.23526e-05, Final residual = 4.31078e-07, No Iterations 4
GAMG:  Solving for p, Initial residual = 7.33221e-07, Final residual = 2.70132e-07, No Iterations 1
time step continuity errors : sum local = 1.27277e-08, global = 1.16193e-09
GAMG:  Solving for p, Initial residual = 2.79002e-06, Final residual = 4.24335e-07, No Iterations 1
GAMG:  Solving for p, Initial residual = 4.24327e-07, Final residual = 1.3617e-07, No Iterations 1
time step continuity errors : sum local = 6.41592e-09, global = -2.06546e-10
Setting traction on solid patch
Total force (fluid) = (-1.06664 2.18043 -2.16062)
Total force (solid) = (1.03912 -2.18953 2.16978)
Evolving stress model
DICPCG: Solving for D, Initial residula = 0.000143474, Final residual = 2.64967e-07, No outer iterations = 260
Max relative residual = 0.000403953, Relative residual = 4.037e-07, enforceLinear = 0
Current fsi relative residual norm: 0.00101958

Time = 0.3, iteration: 7
Current fsi under-relaxation factor (Aitken): 0.823545
Maximal accumulated displacement of interface points: 0.000469993
GAMG:  Solving for cellMotionUx, Initial residual = 0.176002, Final residual = 5.57613e-05, No Iterations 3
GAMG:  Solving for cellMotionUy, Initial residual = 0.149135, Final residual = 9.63183e-05, No Iterations 2
GAMG:  Solving for cellMotionUz, Initial residual = 0.125045, Final residual = 3.8631e-05, No Iterations 3
GAMG:  Solving for cellMotionUx, Initial residual = 6.49201e-05, Final residual = 8.79882e-07, No Iterations 4
GAMG:  Solving for cellMotionUy, Initial residual = 0.000106817, Final residual = 4.69722e-07, No Iterations 4
GAMG:  Solving for cellMotionUz, Initial residual = 4.29185e-05, Final residual = 5.20904e-07, No Iterations 4
Evolving flow model: consistentIcoFlow
Courant Number mean: 0.0164969 max: 0.288633 velocity magnitude: 0.0410204
DILUPBiCG:  Solving for Ux, Initial residual = 3.13259e-05, Final residual = 9.11288e-07, No Iterations 1
DILUPBiCG:  Solving for Uy, Initial residual = 7.58687e-05, Final residual = 8.95626e-08, No Iterations 2
DILUPBiCG:  Solving for Uz, Initial residual = 3.647e-05, Final residual = 7.09122e-08, No Iterations 2
GAMG:  Solving for p, Initial residual = 1.86218e-05, Final residual = 7.67531e-07, No Iterations 4
GAMG:  Solving for p, Initial residual = 1.3141e-06, Final residual = 4.81634e-07, No Iterations 1
time step continuity errors : sum local = 2.26498e-08, global = -2.67852e-09
GAMG:  Solving for p, Initial residual = 9.98657e-06, Final residual = 3.44785e-07, No Iterations 4
GAMG:  Solving for p, Initial residual = 5.93321e-07, Final residual = 2.1944e-07, No Iterations 1
time step continuity errors : sum local = 1.03288e-08, global = 9.258e-10
GAMG:  Solving for p, Initial residual = 2.25815e-06, Final residual = 3.39629e-07, No Iterations 1
GAMG:  Solving for p, Initial residual = 3.39643e-07, Final residual = 1.08434e-07, No Iterations 1
time step continuity errors : sum local = 5.1039e-09, global = -1.60717e-10
Setting traction on solid patch
Total force (fluid) = (-1.0663 2.17747 -2.15771)
Total force (solid) = (1.03896 -2.18663 2.16693)
Evolving stress model
DICPCG: Solving for D, Initial residula = 0.000117258, Final residual = 2.2191e-07, No outer iterations = 229
Max relative residual = 0.000327681, Relative residual = 3.2627e-07, enforceLinear = 0
Current fsi relative residual norm: 6.19214e-05

Time = 0.3, iteration: 8
Current fsi under-relaxation factor (Aitken): 0.833408
Maximal accumulated displacement of interface points: 2.76631e-05
GAMG:  Solving for cellMotionUx, Initial residual = 0.707381, Final residual = 0.000615462, No Iterations 2
GAMG:  Solving for cellMotionUy, Initial residual = 0.863218, Final residual = 0.0004276, No Iterations 2
GAMG:  Solving for cellMotionUz, Initial residual = 0.813778, Final residual = 0.000238468, No Iterations 3
GAMG:  Solving for cellMotionUx, Initial residual = 0.00301252, Final residual = 1.60075e-06, No Iterations 7
GAMG:  Solving for cellMotionUy, Initial residual = 0.00703688, Final residual = 2.25263e-06, No Iterations 6
GAMG:  Solving for cellMotionUz, Initial residual = 0.00440206, Final residual = 2.58216e-06, No Iterations 7
Evolving flow model: consistentIcoFlow
Courant Number mean: 0.0164849 max: 0.288633 velocity magnitude: 0.0410204
DILUPBiCG:  Solving for Ux, Initial residual = 1.34677e-05, Final residual = 3.70348e-07, No Iterations 1
DILUPBiCG:  Solving for Uy, Initial residual = 9.99563e-06, Final residual = 3.13514e-07, No Iterations 1
DILUPBiCG:  Solving for Uz, Initial residual = 5.3462e-06, Final residual = 1.72124e-07, No Iterations 1
GAMG:  Solving for p, Initial residual = 1.82273e-06, Final residual = 3.13271e-07, No Iterations 2
GAMG:  Solving for p, Initial residual = 3.31589e-07, Final residual = 1.34843e-07, No Iterations 1
time step continuity errors : sum local = 6.34656e-09, global = -4.65287e-10
GAMG:  Solving for p, Initial residual = 7.4583e-07, Final residual = 4.96888e-07, No Iterations 1
GAMG:  Solving for p, Initial residual = 4.98683e-07, Final residual = 1.3318e-07, No Iterations 1
time step continuity errors : sum local = 6.26849e-09, global = -1.1944e-09
GAMG:  Solving for p, Initial residual = 2.42773e-07, Final residual = 8.58756e-08, No Iterations 1
GAMG:  Solving for p, Initial residual = 8.61171e-08, Final residual = 2.88958e-08, No Iterations 1
time step continuity errors : sum local = 1.36007e-09, global = -1.08017e-10
Setting traction on solid patch
Total force (fluid) = (-1.06635 2.17738 -2.1576)
Total force (solid) = (1.03901 -2.18655 2.16682)
Evolving stress model
DICPCG: Solving for D, Initial residula = 4.69005e-06, Final residual = 1.52262e-07, No outer iterations = 49
Max relative residual = 1.11328e-05, Relative residual = 9.65438e-08, enforceLinear = 0
Current fsi relative residual norm: 1.08927e-05

Time = 0.3, iteration: 9
Current fsi under-relaxation factor (Aitken): 0.919428
Maximal accumulated displacement of interface points: 4.8739e-06
GAMG:  Solving for cellMotionUx, Initial residual = 0.694533, Final residual = 0.000166015, No Iterations 3
GAMG:  Solving for cellMotionUy, Initial residual = 0.759655, Final residual = 0.000220181, No Iterations 3
GAMG:  Solving for cellMotionUz, Initial residual = 0.840489, Final residual = 0.000175378, No Iterations 3
GAMG:  Solving for cellMotionUx, Initial residual = 0.000537108, Final residual = 6.34729e-07, No Iterations 6
GAMG:  Solving for cellMotionUy, Initial residual = 0.000896172, Final residual = 7.693e-07, No Iterations 6
GAMG:  Solving for cellMotionUz, Initial residual = 0.00121436, Final residual = 6.41256e-07, No Iterations 7
Evolving flow model: consistentIcoFlow
Courant Number mean: 0.0164842 max: 0.288633 velocity magnitude: 0.0410204
DILUPBiCG:  Solving for Ux, Initial residual = 1.70313e-06, Final residual = 4.38064e-08, No Iterations 1
DILUPBiCG:  Solving for Uy, Initial residual = 1.71267e-06, Final residual = 5.34572e-08, No Iterations 1
DILUPBiCG:  Solving for Uz, Initial residual = 7.40954e-07, Final residual = 2.08993e-08, No Iterations 1
GAMG:  Solving for p, Initial residual = 2.79376e-07, Final residual = 1.56043e-07, No Iterations 1
GAMG:  Solving for p, Initial residual = 1.56556e-07, Final residual = 5.34863e-08, No Iterations 1
time step continuity errors : sum local = 2.51748e-09, global = 4.21671e-10
GAMG:  Solving for p, Initial residual = 1.43578e-07, Final residual = 4.68384e-08, No Iterations 1
GAMG:  Solving for p, Initial residual = 4.69617e-08, Final residual = 1.13828e-08, No Iterations 1
time step continuity errors : sum local = 5.35764e-10, global = 2.81226e-11
GAMG:  Solving for p, Initial residual = 3.98244e-08, Final residual = 1.47839e-08, No Iterations 1
GAMG:  Solving for p, Initial residual = 1.48202e-08, Final residual = 6.16572e-09, No Iterations 1
time step continuity errors : sum local = 2.90207e-10, global = -5.91068e-12
Setting traction on solid patch
Total force (fluid) = (-1.06633 2.17737 -2.15759)
Total force (solid) = (1.03899 -2.18654 2.16681)
Evolving stress model
DICPCG: Solving for D, Initial residula = 5.35903e-07, Final residual = 6.74207e-08, No outer iterations = 116
Max relative residual = 1.84179e-06, Relative residual = 9.96671e-08, enforceLinear = 0
Current fsi relative residual norm: 1.05881e-05

Time = 0.3, iteration: 10
Current fsi under-relaxation factor (Aitken): 0.466662
Maximal accumulated displacement of interface points: 2.20502e-06
GAMG:  Solving for cellMotionUx, Initial residual = 0.680688, Final residual = 0.000615274, No Iterations 2
GAMG:  Solving for cellMotionUy, Initial residual = 0.850296, Final residual = 0.000184062, No Iterations 3
GAMG:  Solving for cellMotionUz, Initial residual = 0.965586, Final residual = 0.000217816, No Iterations 3
GAMG:  Solving for cellMotionUx, Initial residual = 0.00156009, Final residual = 8.01624e-07, No Iterations 7
GAMG:  Solving for cellMotionUy, Initial residual = 0.000257673, Final residual = 6.41407e-07, No Iterations 5
GAMG:  Solving for cellMotionUz, Initial residual = 0.000880039, Final residual = 4.23217e-07, No Iterations 7
Evolving flow model: consistentIcoFlow
Courant Number mean: 0.0164843 max: 0.288633 velocity magnitude: 0.0410204
DILUPBiCG:  Solving for Ux, Initial residual = 2.04029e-07, Final residual = 1.38993e-07, No Iterations 1
DILUPBiCG:  Solving for Uy, Initial residual = 2.66275e-07, Final residual = 8.6301e-09, No Iterations 1
DILUPBiCG:  Solving for Uz, Initial residual = 8.20362e-08, Final residual = 2.76915e-09, No Iterations 1
GAMG:  Solving for p, Initial residual = 1.27588e-07, Final residual = 9.00611e-08, No Iterations 1
GAMG:  Solving for p, Initial residual = 8.99644e-08, Final residual = 4.46051e-08, No Iterations 1
time step continuity errors : sum local = 2.09947e-09, global = -7.75123e-11
GAMG:  Solving for p, Initial residual = 8.88442e-08, Final residual = 2.93155e-08, No Iterations 1
GAMG:  Solving for p, Initial residual = 2.92237e-08, Final residual = 9.5982e-09, No Iterations 1
time step continuity errors : sum local = 4.51767e-10, global = -1.873e-11
GAMG:  Solving for p, Initial residual = 3.41022e-08, Final residual = 1.17531e-08, No Iterations 1
GAMG:  Solving for p, Initial residual = 1.17469e-08, Final residual = 5.54476e-09, No Iterations 1
time step continuity errors : sum local = 2.6098e-10, global = 4.84817e-12
Setting traction on solid patch
Total force (fluid) = (-1.06634 2.17737 -2.15759)
Total force (solid) = (1.03901 -2.18654 2.16681)
Evolving stress model
DICPCG: Solving for D, Initial residula = 1.20806e-07, Final residual = 6.36393e-08, No outer iterations = 40
Max relative residual = 9.61256e-07, Relative residual = 9.74611e-08, enforceLinear = 0
Current fsi relative residual norm: 2.14576e-06

Time = 0.3, iteration: 11
Current fsi under-relaxation factor (Aitken): 0.527275
Maximal accumulated displacement of interface points: 3.3626e-07
GAMG:  Solving for cellMotionUx, Initial residual = 0.709695, Final residual = 0.000364386, No Iterations 2
GAMG:  Solving for cellMotionUy, Initial residual = 0.434424, Final residual = 0.000256525, No Iterations 2
GAMG:  Solving for cellMotionUz, Initial residual = 0.140804, Final residual = 2.37686e-05, No Iterations 3
GAMG:  Solving for cellMotionUx, Initial residual = 0.00112729, Final residual = 6.91526e-07, No Iterations 7
GAMG:  Solving for cellMotionUy, Initial residual = 0.000450874, Final residual = 4.27824e-07, No Iterations 5
GAMG:  Solving for cellMotionUz, Initial residual = 2.63578e-05, Final residual = 5.03766e-07, No Iterations 3
Evolving flow model: consistentIcoFlow
Courant Number mean: 0.0164843 max: 0.288633 velocity magnitude: 0.0410204
DILUPBiCG:  Solving for Ux, Initial residual = 7.83748e-08, Final residual = 2.45516e-09, No Iterations 1
DILUPBiCG:  Solving for Uy, Initial residual = 1.35114e-07, Final residual = 7.3736e-08, No Iterations 1
DILUPBiCG:  Solving for Uz, Initial residual = 6.25737e-08, Final residual = 1.81712e-09, No Iterations 1
GAMG:  Solving for p, Initial residual = 2.71574e-08, Final residual = 6.84645e-09, No Iterations 1
GAMG:  Solving for p, Initial residual = 6.87492e-09, Final residual = 1.70169e-09, No Iterations 1
time step continuity errors : sum local = 8.00951e-11, global = -8.10201e-12
GAMG:  Solving for p, Initial residual = 9.10239e-09, Final residual = 1.89454e-09, No Iterations 1
GAMG:  Solving for p, Initial residual = 1.91069e-09, Final residual = 4.23403e-10, No Iterations 1
time step continuity errors : sum local = 1.99287e-11, global = -2.81911e-12
GAMG:  Solving for p, Initial residual = 1.87449e-09, Final residual = 5.22536e-10, No Iterations 1
GAMG:  Solving for p, Initial residual = 5.24121e-10, Final residual = 1.86451e-10, No Iterations 1
time step continuity errors : sum local = 8.77586e-12, global = 3.93619e-13
Setting traction on solid patch
Total force (fluid) = (-1.06634 2.17737 -2.15759)
Total force (solid) = (1.03901 -2.18654 2.16681)
Evolving stress model
DICPCG: Solving for D, Initial residula = 7.12021e-08, Final residual = 6.29882e-08, No outer iterations = 9
Max relative residual = 1.35926e-07, Relative residual = 9.83105e-08, enforceLinear = 0
Current fsi relative residual norm: 8.1736e-07
Max sigmaCauchyEq = 204.521
SigmaCauchyEq, max: 135.32, avg: 37.9931, min: 1.10373
Max sigmaEq = 203.609
SigmaEq, max: 131.905, avg: 39.1165, min: 1.13364
ExecutionTime = 25.86 s  ClockTime = 26 s

Seting inlet velocity
Umax = 0.0690983
forces output:
    forces(pressure, viscous)((1.03813 -2.18614 2.16208) (0.0311677 0.00898624 -0.00490134))
    moment(pressure, viscous)((-0.219325 -0.100919 0.0145937) (0.000782696 -0.00561806 0.0012451))

Time = 0.4


Time = 0.4, iteration: 1
Current fsi under-relaxation factor: 0.4
Maximal accumulated displacement of interface points: 0
GAMG:  Solving for cellMotionUx, Initial residual = 0.643998, Final residual = 0.000185397, No Iterations 3
GAMG:  Solving for cellMotionUy, Initial residual = 0.93211, Final residual = 0.000740052, No Iterations 2
GAMG:  Solving for cellMotionUz, Initial residual = 0.911526, Final residual = 0.000246597, No Iterations 3
GAMG:  Solving for cellMotionUx, Initial residual = 0.00485445, Final residual = 2.33515e-06, No Iterations 7
[...]
GAMG:  Solving for cellMotionUy, Initial residual = 0.926773, Final residual = 0.00062913, No Iterations 2
GAMG:  Solving for cellMotionUz, Initial residual = 0.805476, Final residual = 0.000156871, No Iterations 3
GAMG:  Solving for cellMotionUx, Initial residual = 0.000695811, Final residual = 3.85743e-07, No Iterations 7
GAMG:  Solving for cellMotionUy, Initial residual = 0.0046311, Final residual = 4.30024e-06, No Iterations 5
GAMG:  Solving for cellMotionUz, Initial residual = 0.00109097, Final residual = 5.89333e-07, No Iterations 7
Evolving flow model: consistentIcoFlow
Courant Number mean: 0.135699 max: 1.37716 velocity magnitude: 0.218659
DILUPBiCG:  Solving for Ux, Initial residual = 2.46694e-06, Final residual = 9.54286e-09, No Iterations 2
DILUPBiCG:  Solving for Uy, Initial residual = 7.17381e-06, Final residual = 2.86834e-08, No Iterations 2
DILUPBiCG:  Solving for Uz, Initial residual = 4.98547e-06, Final residual = 2.64822e-07, No Iterations 1
GAMG:  Solving for p, Initial residual = 9.16621e-05, Final residual = 6.86481e-07, No Iterations 6
GAMG:  Solving for p, Initial residual = 5.49256e-06, Final residual = 3.37623e-07, No Iterations 2
time step continuity errors : sum local = 2.52824e-09, global = -1.28497e-10
GAMG:  Solving for p, Initial residual = 3.9065e-05, Final residual = 6.33544e-07, No Iterations 5
GAMG:  Solving for p, Initial residual = 2.58286e-06, Final residual = 5.39341e-07, No Iterations 1
time step continuity errors : sum local = 4.03787e-09, global = 2.17411e-10
GAMG:  Solving for p, Initial residual = 8.18173e-06, Final residual = 9.00235e-07, No Iterations 1
GAMG:  Solving for p, Initial residual = 9.21572e-07, Final residual = 3.33856e-07, No Iterations 1
time step continuity errors : sum local = 2.49948e-09, global = 1.72726e-10
Setting traction on solid patch
Total force (fluid) = (-1.22601 -0.0256059 0.0106856)
Total force (solid) = (1.20751 0.0266171 -0.00965692)
Evolving stress model
DICPCG: Solving for D, Initial residula = 8.578e-06, Final residual = 7.21973e-08, No outer iterations = 366
Max relative residual = 0.00193924, Relative residual = 1.93488e-06, enforceLinear = 0
Current fsi relative residual norm: 0.0110734

Time = 4, iteration: 5
Current fsi under-relaxation factor (Aitken): 0.326292
Maximal accumulated displacement of interface points: 4.84218e-05
GAMG:  Solving for cellMotionUx, Initial residual = 0.892774, Final residual = 0.000327195, No Iterations 2
GAMG:  Solving for cellMotionUy, Initial residual = 0.507071, Final residual = 0.000351079, No Iterations 2
GAMG:  Solving for cellMotionUz, Initial residual = 0.577918, Final residual = 0.000234313, No Iterations 3
GAMG:  Solving for cellMotionUx, Initial residual = 0.000811776, Final residual = 4.19394e-07, No Iterations 7
GAMG:  Solving for cellMotionUy, Initial residual = 0.000354774, Final residual = 9.35054e-07, No Iterations 4
GAMG:  Solving for cellMotionUz, Initial residual = 0.000567464, Final residual = 7.90743e-07, No Iterations 6
Evolving flow model: consistentIcoFlow
Courant Number mean: 0.135697 max: 1.37716 velocity magnitude: 0.218659
DILUPBiCG:  Solving for Ux, Initial residual = 7.44993e-07, Final residual = 3.39948e-08, No Iterations 1
DILUPBiCG:  Solving for Uy, Initial residual = 2.68167e-06, Final residual = 2.41488e-07, No Iterations 1
DILUPBiCG:  Solving for Uz, Initial residual = 2.20539e-06, Final residual = 1.98985e-07, No Iterations 1
GAMG:  Solving for p, Initial residual = 2.63803e-05, Final residual = 8.13789e-07, No Iterations 4
GAMG:  Solving for p, Initial residual = 1.7296e-06, Final residual = 4.23778e-07, No Iterations 1
time step continuity errors : sum local = 3.17234e-09, global = 1.91622e-10
GAMG:  Solving for p, Initial residual = 1.09394e-05, Final residual = 6.97115e-07, No Iterations 3
GAMG:  Solving for p, Initial residual = 1.03179e-06, Final residual = 3.28587e-07, No Iterations 1
time step continuity errors : sum local = 2.45983e-09, global = -8.58754e-11
GAMG:  Solving for p, Initial residual = 2.23898e-06, Final residual = 4.17759e-07, No Iterations 1
GAMG:  Solving for p, Initial residual = 4.22391e-07, Final residual = 1.64915e-07, No Iterations 1
time step continuity errors : sum local = 1.23457e-09, global = -4.03528e-11
Setting traction on solid patch
Total force (fluid) = (-1.22569 -0.0256654 0.0107203)
Total force (solid) = (1.20719 0.0266768 -0.00969166)
Evolving stress model
DICPCG: Solving for D, Initial residula = 2.50724e-06, Final residual = 2.17349e-08, No outer iterations = 381
Max relative residual = 0.000523982, Relative residual = 4.29296e-07, enforceLinear = 0
Current fsi relative residual norm: 0.00295191

Time = 4, iteration: 6
Current fsi under-relaxation factor (Aitken): 0.430235
Maximal accumulated displacement of interface points: 1.51735e-05
GAMG:  Solving for cellMotionUx, Initial residual = 0.552552, Final residual = 0.000349076, No Iterations 2
GAMG:  Solving for cellMotionUy, Initial residual = 0.392121, Final residual = 0.000230098, No Iterations 2
GAMG:  Solving for cellMotionUz, Initial residual = 0.202222, Final residual = 0.000189005, No Iterations 2
GAMG:  Solving for cellMotionUx, Initial residual = 0.000691893, Final residual = 4.22154e-07, No Iterations 7
GAMG:  Solving for cellMotionUy, Initial residual = 0.000378164, Final residual = 3.51493e-07, No Iterations 5
GAMG:  Solving for cellMotionUz, Initial residual = 0.000231612, Final residual = 4.39435e-07, No Iterations 5
Evolving flow model: consistentIcoFlow
Courant Number mean: 0.135696 max: 1.37716 velocity magnitude: 0.218655
DILUPBiCG:  Solving for Ux, Initial residual = 2.40997e-07, Final residual = 1.23686e-08, No Iterations 1
DILUPBiCG:  Solving for Uy, Initial residual = 1.20113e-06, Final residual = 6.3258e-08, No Iterations 1
DILUPBiCG:  Solving for Uz, Initial residual = 6.23477e-07, Final residual = 3.16791e-08, No Iterations 1
GAMG:  Solving for p, Initial residual = 8.26834e-06, Final residual = 3.9355e-07, No Iterations 3
GAMG:  Solving for p, Initial residual = 6.05462e-07, Final residual = 1.80343e-07, No Iterations 1
time step continuity errors : sum local = 1.35004e-09, global = 1.25294e-10
GAMG:  Solving for p, Initial residual = 2.96604e-06, Final residual = 8.684e-07, No Iterations 1
GAMG:  Solving for p, Initial residual = 8.88203e-07, Final residual = 3.71839e-07, No Iterations 1
time step continuity errors : sum local = 2.78358e-09, global = -1.1207e-11
GAMG:  Solving for p, Initial residual = 8.65905e-07, Final residual = 2.55515e-07, No Iterations 1
GAMG:  Solving for p, Initial residual = 2.59828e-07, Final residual = 1.16643e-07, No Iterations 1
time step continuity errors : sum local = 8.73191e-10, global = -4.509e-11
Setting traction on solid patch
Total force (fluid) = (-1.22564 -0.0256653 0.0107173)
Total force (solid) = (1.20714 0.0266767 -0.00968857)
Evolving stress model
DICPCG: Solving for D, Initial residula = 2.26813e-07, Final residual = 8.80323e-09, No outer iterations = 346
Max relative residual = 9.62278e-05, Relative residual = 9.60097e-08, enforceLinear = 0
Current fsi relative residual norm: 0.000895563

Time = 4, iteration: 7
Current fsi under-relaxation factor (Aitken): 0.558039
Maximal accumulated displacement of interface points: 5.17605e-06
GAMG:  Solving for cellMotionUx, Initial residual = 0.417074, Final residual = 0.000373239, No Iterations 2
GAMG:  Solving for cellMotionUy, Initial residual = 0.393849, Final residual = 0.000250584, No Iterations 2
GAMG:  Solving for cellMotionUz, Initial residual = 0.30402, Final residual = 7.39161e-05, No Iterations 3
GAMG:  Solving for cellMotionUx, Initial residual = 0.000691908, Final residual = 9.62275e-07, No Iterations 6
GAMG:  Solving for cellMotionUy, Initial residual = 0.000408271, Final residual = 3.7722e-07, No Iterations 5
GAMG:  Solving for cellMotionUz, Initial residual = 0.000105701, Final residual = 4.41062e-07, No Iterations 5
Evolving flow model: consistentIcoFlow
Courant Number mean: 0.135696 max: 1.37716 velocity magnitude: 0.218654
DILUPBiCG:  Solving for Ux, Initial residual = 8.63459e-08, Final residual = 3.86211e-09, No Iterations 1
DILUPBiCG:  Solving for Uy, Initial residual = 3.32904e-07, Final residual = 1.70491e-08, No Iterations 1
DILUPBiCG:  Solving for Uz, Initial residual = 1.61359e-07, Final residual = 7.67149e-09, No Iterations 1
GAMG:  Solving for p, Initial residual = 2.9232e-06, Final residual = 8.17032e-07, No Iterations 1
GAMG:  Solving for p, Initial residual = 8.45653e-07, Final residual = 3.89429e-07, No Iterations 1
time step continuity errors : sum local = 2.91528e-09, global = -8.23465e-11
GAMG:  Solving for p, Initial residual = 1.32453e-06, Final residual = 3.23579e-07, No Iterations 1
GAMG:  Solving for p, Initial residual = 3.35375e-07, Final residual = 8.88673e-08, No Iterations 1
time step continuity errors : sum local = 6.65267e-10, global = -8.89609e-11
GAMG:  Solving for p, Initial residual = 3.48296e-07, Final residual = 1.04701e-07, No Iterations 1
GAMG:  Solving for p, Initial residual = 1.07168e-07, Final residual = 4.33226e-08, No Iterations 1
time step continuity errors : sum local = 3.24316e-10, global = 1.83058e-11
Setting traction on solid patch
Total force (fluid) = (-1.22566 -0.0256637 0.0107137)
Total force (solid) = (1.20716 0.0266752 -0.00968487)
Evolving stress model
DICPCG: Solving for D, Initial residula = 2.41872e-07, Final residual = 7.61728e-09, No outer iterations = 147
Max relative residual = 2.01828e-05, Relative residual = 9.74635e-08, enforceLinear = 0
Current fsi relative residual norm: 0.000379248

Time = 4, iteration: 8
Current fsi under-relaxation factor (Aitken): 0.919567
Maximal accumulated displacement of interface points: 3.73778e-06
GAMG:  Solving for cellMotionUx, Initial residual = 0.203566, Final residual = 0.000196662, No Iterations 2
GAMG:  Solving for cellMotionUy, Initial residual = 0.205744, Final residual = 0.000146057, No Iterations 2
GAMG:  Solving for cellMotionUz, Initial residual = 0.264206, Final residual = 9.12008e-05, No Iterations 3
GAMG:  Solving for cellMotionUx, Initial residual = 0.000240074, Final residual = 4.9425e-07, No Iterations 5
GAMG:  Solving for cellMotionUy, Initial residual = 0.000182093, Final residual = 5.39654e-07, No Iterations 4
GAMG:  Solving for cellMotionUz, Initial residual = 0.000125946, Final residual = 5.16424e-07, No Iterations 5
Evolving flow model: consistentIcoFlow
Courant Number mean: 0.135696 max: 1.37716 velocity magnitude: 0.218653
DILUPBiCG:  Solving for Ux, Initial residual = 4.46744e-08, Final residual = 2.10783e-09, No Iterations 1
DILUPBiCG:  Solving for Uy, Initial residual = 1.7307e-07, Final residual = 8.42506e-09, No Iterations 1
DILUPBiCG:  Solving for Uz, Initial residual = 9.64855e-08, Final residual = 4.33201e-09, No Iterations 1
GAMG:  Solving for p, Initial residual = 1.53383e-06, Final residual = 4.42088e-07, No Iterations 1
GAMG:  Solving for p, Initial residual = 4.54082e-07, Final residual = 1.37861e-07, No Iterations 1
time step continuity errors : sum local = 1.03204e-09, global = 8.23262e-11
GAMG:  Solving for p, Initial residual = 6.50087e-07, Final residual = 1.5088e-07, No Iterations 1
GAMG:  Solving for p, Initial residual = 1.58975e-07, Final residual = 3.54983e-08, No Iterations 1
time step continuity errors : sum local = 2.65743e-10, global = 2.41639e-11
GAMG:  Solving for p, Initial residual = 1.54412e-07, Final residual = 3.97542e-08, No Iterations 1
GAMG:  Solving for p, Initial residual = 4.07252e-08, Final residual = 1.37987e-08, No Iterations 1
time step continuity errors : sum local = 1.03298e-10, global = -2.55966e-12
Setting traction on solid patch
Total force (fluid) = (-1.22566 -0.0256654 0.0107134)
Total force (solid) = (1.20716 0.0266769 -0.00968461)
Evolving stress model
DICPCG: Solving for D, Initial residula = 4.22256e-08, Final residual = 7.03067e-09, No outer iterations = 206
Max relative residual = 9.02386e-06, Relative residual = 9.97411e-08, enforceLinear = 0
Current fsi relative residual norm: 9.73144e-05

Time = 4, iteration: 9
Current fsi under-relaxation factor (Aitken): 0.753717
Maximal accumulated displacement of interface points: 1.03416e-06
GAMG:  Solving for cellMotionUx, Initial residual = 0.620976, Final residual = 0.000196318, No Iterations 3
GAMG:  Solving for cellMotionUy, Initial residual = 0.927992, Final residual = 0.000646516, No Iterations 2
GAMG:  Solving for cellMotionUz, Initial residual = 0.788663, Final residual = 0.0002818, No Iterations 3
GAMG:  Solving for cellMotionUx, Initial residual = 0.000944192, Final residual = 6.5365e-07, No Iterations 7
GAMG:  Solving for cellMotionUy, Initial residual = 0.00267592, Final residual = 2.56264e-06, No Iterations 5
GAMG:  Solving for cellMotionUz, Initial residual = 0.00182645, Final residual = 9.83191e-07, No Iterations 7
Evolving flow model: consistentIcoFlow
Courant Number mean: 0.135696 max: 1.37716 velocity magnitude: 0.218653
DILUPBiCG:  Solving for Ux, Initial residual = 1.34771e-08, Final residual = 7.13421e-10, No Iterations 1
DILUPBiCG:  Solving for Uy, Initial residual = 5.79629e-08, Final residual = 4.83152e-09, No Iterations 1
DILUPBiCG:  Solving for Uz, Initial residual = 3.87814e-08, Final residual = 2.5025e-09, No Iterations 1
GAMG:  Solving for p, Initial residual = 4.93494e-07, Final residual = 2.09417e-07, No Iterations 1
GAMG:  Solving for p, Initial residual = 2.10757e-07, Final residual = 1.0391e-07, No Iterations 1
time step continuity errors : sum local = 7.77877e-10, global = -2.219e-11
GAMG:  Solving for p, Initial residual = 2.63297e-07, Final residual = 7.31282e-08, No Iterations 1
GAMG:  Solving for p, Initial residual = 7.47311e-08, Final residual = 2.19717e-08, No Iterations 1
time step continuity errors : sum local = 1.64482e-10, global = -1.34248e-11
GAMG:  Solving for p, Initial residual = 8.859e-08, Final residual = 2.66296e-08, No Iterations 1
GAMG:  Solving for p, Initial residual = 2.70166e-08, Final residual = 1.23911e-08, No Iterations 1
time step continuity errors : sum local = 9.27609e-11, global = 2.25528e-12
Setting traction on solid patch
Total force (fluid) = (-1.22567 -0.0256648 0.0107129)
Total force (solid) = (1.20717 0.0266762 -0.00968413)
Evolving stress model
DICPCG: Solving for D, Initial residula = 3.7078e-08, Final residual = 3.67056e-09, No outer iterations = 129
Max relative residual = 9.51269e-06, Relative residual = 9.9602e-08, enforceLinear = 0
Current fsi relative residual norm: 5.3621e-05

Time = 4, iteration: 10
Current fsi under-relaxation factor (Aitken): 0.489024
Maximal accumulated displacement of interface points: 3.49189e-07
GAMG:  Solving for cellMotionUx, Initial residual = 0.734399, Final residual = 0.000509824, No Iterations 2
GAMG:  Solving for cellMotionUy, Initial residual = 0.967856, Final residual = 0.000594345, No Iterations 2
GAMG:  Solving for cellMotionUz, Initial residual = 0.749797, Final residual = 0.000167395, No Iterations 3
GAMG:  Solving for cellMotionUx, Initial residual = 0.00149926, Final residual = 9.17718e-07, No Iterations 7
GAMG:  Solving for cellMotionUy, Initial residual = 0.00170527, Final residual = 5.35857e-07, No Iterations 6
GAMG:  Solving for cellMotionUz, Initial residual = 0.000604119, Final residual = 9.41095e-07, No Iterations 6
Evolving flow model: consistentIcoFlow
Courant Number mean: 0.135696 max: 1.37716 velocity magnitude: 0.218653
DILUPBiCG:  Solving for Ux, Initial residual = 5.53233e-09, Final residual = 2.55376e-10, No Iterations 1
DILUPBiCG:  Solving for Uy, Initial residual = 1.851e-08, Final residual = 1.56111e-09, No Iterations 1
DILUPBiCG:  Solving for Uz, Initial residual = 1.40833e-08, Final residual = 8.35595e-08, No Iterations 1
GAMG:  Solving for p, Initial residual = 2.44906e-07, Final residual = 1.06648e-07, No Iterations 1
GAMG:  Solving for p, Initial residual = 1.07326e-07, Final residual = 5.38663e-08, No Iterations 1
time step continuity errors : sum local = 4.03247e-10, global = 1.31721e-11
GAMG:  Solving for p, Initial residual = 1.64368e-07, Final residual = 4.37907e-08, No Iterations 1
GAMG:  Solving for p, Initial residual = 4.41694e-08, Final residual = 1.3804e-08, No Iterations 1
time step continuity errors : sum local = 1.03338e-10, global = 5.63276e-12
GAMG:  Solving for p, Initial residual = 5.06726e-08, Final residual = 1.42574e-08, No Iterations 1
GAMG:  Solving for p, Initial residual = 1.44301e-08, Final residual = 6.56036e-09, No Iterations 1
time step continuity errors : sum local = 4.91113e-11, global = -1.35312e-13
Setting traction on solid patch
Total force (fluid) = (-1.22566 -0.0256653 0.0107133)
Total force (solid) = (1.20716 0.0266767 -0.00968449)
Evolving stress model
DICPCG: Solving for D, Initial residula = 2.67331e-08, Final residual = 4.72954e-09, No outer iterations = 51
Max relative residual = 4.49995e-06, Relative residual = 9.91384e-08, enforceLinear = 0
Current fsi relative residual norm: 2.00589e-06

Time = 4, iteration: 11
Current fsi under-relaxation factor (Aitken): 0.49497
Maximal accumulated displacement of interface points: 8.91315e-09
GAMG:  Solving for cellMotionUx, Initial residual = 0.782912, Final residual = 0.000366255, No Iterations 2
GAMG:  Solving for cellMotionUy, Initial residual = 0.799995, Final residual = 0.000449191, No Iterations 2
GAMG:  Solving for cellMotionUz, Initial residual = 0.780667, Final residual = 0.000202406, No Iterations 3
GAMG:  Solving for cellMotionUx, Initial residual = 0.00333375, Final residual = 2.15601e-06, No Iterations 7
GAMG:  Solving for cellMotionUy, Initial residual = 0.00243804, Final residual = 1.97667e-06, No Iterations 5
GAMG:  Solving for cellMotionUz, Initial residual = 0.00131467, Final residual = 5.90084e-07, No Iterations 7
Evolving flow model: consistentIcoFlow
Courant Number mean: 0.135696 max: 1.37716 velocity magnitude: 0.218653
DILUPBiCG:  Solving for Ux, Initial residual = 2.09599e-09, Final residual = 9.77329e-11, No Iterations 1
DILUPBiCG:  Solving for Uy, Initial residual = 7.3983e-09, Final residual = 3.8893e-10, No Iterations 1
DILUPBiCG:  Solving for Uz, Initial residual = 7.10716e-09, Final residual = 3.76139e-10, No Iterations 1
GAMG:  Solving for p, Initial residual = 5.45521e-08, Final residual = 1.19348e-08, No Iterations 1
GAMG:  Solving for p, Initial residual = 1.19832e-08, Final residual = 3.73481e-09, No Iterations 1
time step continuity errors : sum local = 2.79591e-11, global = -2.70633e-12
GAMG:  Solving for p, Initial residual = 1.80324e-08, Final residual = 3.87269e-09, No Iterations 1
GAMG:  Solving for p, Initial residual = 3.87693e-09, Final residual = 8.48885e-10, No Iterations 1
time step continuity errors : sum local = 6.35481e-12, global = -4.98692e-13
GAMG:  Solving for p, Initial residual = 3.98089e-09, Final residual = 1.01797e-09, No Iterations 1
GAMG:  Solving for p, Initial residual = 1.02552e-09, Final residual = 3.34477e-10, No Iterations 1
time step continuity errors : sum local = 2.50392e-12, global = 1.07126e-13
Setting traction on solid patch
Total force (fluid) = (-1.22566 -0.0256652 0.0107132)
Total force (solid) = (1.20716 0.0266766 -0.00968442)
Evolving stress model
DICPCG: Solving for D, Initial residula = 6.98511e-09, Final residual = 4.83281e-09, No outer iterations = 2
Max relative residual = 2.08193e-07, Relative residual = 8.39554e-08, enforceLinear = 0
Current fsi relative residual norm: 8.85462e-07
Max sigmaCauchyEq = 434.225
SigmaCauchyEq, max: 273.834, avg: 102.38, min: 11.5559
Max sigmaEq = 408.606
SigmaEq, max: 250.836, avg: 102.506, min: 11.5591
ExecutionTime = 360.32 s  ClockTime = 360 s

Seting inlet velocity
Umax = 0.2
forces output:
    forces(pressure, viscous)((0.969193 -0.0460384 0.0856783) (0.265246 0.0767423 -0.0991687))
    moment(pressure, viscous)((-0.00781063 -0.0918474 -0.00205439) (0.00631373 -0.0398564 -0.0170081))

End

